# File generated by Flopy version 3.3.5 on 11/06/2021 at 15:07:54.
BEGIN options
  SCHEME  upstream
END options

