# File generated by Flopy version 3.3.5 on 11/06/2021 at 15:07:46.
BEGIN options
  PRINT_OPTION  summary
END options

BEGIN nonlinear
  OUTER_DVCLOSE  1.00000000E-06
  OUTER_MAXIMUM  100
  UNDER_RELAXATION  none
END nonlinear

BEGIN linear
  INNER_MAXIMUM  500
  INNER_DVCLOSE  1.00000000E-06
  inner_rclose  1.00000000E-06
  LINEAR_ACCELERATION  bicgstab
  RELAXATION_FACTOR       1.00000000
  SCALING_METHOD  none
  REORDERING_METHOD  none
END linear

