# File generated by Flopy version 3.3.5 on 09/19/2021 at 12:03:24.
BEGIN options
  PRINT_FLOWS
END options

BEGIN sources
END sources

