# File generated by Flopy version 3.3.4 on 11/01/2021 at 14:41:19.
BEGIN options
  PRINT_FLOWS
END options

BEGIN sources
END sources

