# File generated by Flopy version 3.3.5 on 09/19/2021 at 12:03:24.
BEGIN options
  BOUNDNAMES
END options

BEGIN dimensions
  MAXBOUND  51
END dimensions

BEGIN period  1
  1 5828     200.00000000  conc-1
  1 5829     200.00000000  conc-1
  1 6269     200.00000000  conc-1
  1 6275     200.00000000  conc-1
  1 6278     200.00000000  conc-1
  1 6279     200.00000000  conc-1
  1 6282     200.00000000  conc-1
  1 6283     200.00000000  conc-1
  1 6280     200.00000000  conc-1
  1 6281     200.00000000  conc-1
  1 6284     200.00000000  conc-1
  1 6285     200.00000000  conc-1
  1 6286     200.00000000  conc-1
  1 6287     200.00000000  conc-1
  1 6290     200.00000000  conc-1
  1 6291     200.00000000  conc-1
  1 6288     200.00000000  conc-1
  1 6289     200.00000000  conc-1
  1 6292     200.00000000  conc-1
  1 6782     200.00000000  conc-1
  1 5510     259.00000000  conc-2
  1 5511     259.00000000  conc-2
  1 5512     259.00000000  conc-2
  1 5517     259.00000000  conc-2
  1 5518     259.00000000  conc-2
  1 5521     259.00000000  conc-2
  1 5523     259.00000000  conc-2
  1 5529     259.00000000  conc-2
  1 5530     259.00000000  conc-2
  1 6294     200.00000000  conc-1
  1 6296     200.00000000  conc-1
  1 6302     200.00000000  conc-1
  1 6297     200.00000000  conc-1
  1 6295     200.00000000  conc-1
  1 6293     200.00000000  conc-1
  1 5840     200.00000000  conc-1
  1 5825     200.00000000  conc-1
  1 6267     200.00000000  conc-1
  1 6268     200.00000000  conc-1
  1 6274     200.00000000  conc-1
  1 6271     200.00000000  conc-1
  1 6276     200.00000000  conc-1
  1 6277     200.00000000  conc-1
  1 6781     200.00000000  conc-1
  1 6770     200.00000000  conc-1
  1 6273     200.00000000  conc-1
  1 6272     200.00000000  conc-1
  1 6769     200.00000000  conc-1
  1 6766     200.00000000  conc-1
  1 6771     200.00000000  conc-1
  1 6772     200.00000000  conc-1
END period  1

