# File generated by Flopy version 3.3.5 on 09/19/2021 at 12:03:24.
BEGIN options
END options

BEGIN griddata
  porosity
    CONSTANT       0.20000000
END griddata

