# File generated by Flopy version 3.3.5 on 09/19/2021 at 12:03:24.
BEGIN griddata
  strt
    CONSTANT       0.00000000
END griddata

