# File generated by Flopy version 3.3.4 on 11/01/2021 at 14:41:19.
BEGIN options
END options

BEGIN griddata
  porosity
    CONSTANT       0.20000000
END griddata

