# File generated by Flopy version 3.3.3 on 07/03/2021 at 16:27:45.
BEGIN griddata
  strt
    CONSTANT       0.00000000
END griddata

