# File generated by Flopy version 3.3.5 on 11/06/2021 at 15:07:54.
BEGIN options
END options

BEGIN griddata
  diffc
    CONSTANT  1.02000000E-09
  alh
    CONSTANT      30.00000000
  ath1
    CONSTANT       3.00000000
  atv
    CONSTANT       3.00000000
END griddata

