# File generated by Flopy version 3.3.3 on 07/03/2021 at 16:27:45.
BEGIN options
END options

BEGIN griddata
  porosity
    CONSTANT       0.20000000
END griddata

