# File generated by Flopy version 3.3.5 on 09/19/2021 at 12:03:22.
BEGIN options
  SAVE_FLOWS
END options

BEGIN packages
  disv6  gwt-sgn.dis  disv
  ic6  gwt-sgn.ic  ic
  adv6  gwt-sgn.adv  adv
  dsp6  gwt-sgn.dsp  dsp-1
  mst6  gwt-sgn.mst  mst-1
  ssm6  gwt-sgn.ssm  ssm
  oc6  gwt-sgn.oc  oc
  cnc6  gwt-sgn.cnc  cnc
  obs6  gwt-sgn.obs  obs_0
END packages

