# File generated by Flopy version 3.3.5 on 11/06/2021 at 15:07:54.
BEGIN options
  BUDGET  FILEOUT  gwt-sgn.cbc
  CONCENTRATION  FILEOUT  gwt-sgn.ucn
  CONCENTRATION  PRINT_FORMAT  COLUMNS  10  WIDTH  15  DIGITS  6  general
END options

BEGIN period  1
  SAVE  concentration  last
  SAVE  budget  last
  PRINT  concentration  last
  PRINT  budget  last
END period  1

