# File generated by Flopy version 3.3.5 on 09/19/2021 at 12:03:18.
BEGIN options
  CONTINUE
END options

BEGIN timing
  TDIS6  sim.tdis
END timing

BEGIN models
  gwf6  sgn.nam  sgn
  gwt6  gwt-sgn.nam  gwt-sgn
END models

BEGIN exchanges
  gwf6-gwt6  sgn.gwfgwt  sgn  gwt-sgn
END exchanges

BEGIN solutiongroup  1
  ims6  sim.ims  sgn
  ims6  gwt-sgn.ims  gwt-sgn
END solutiongroup  1

