# File generated by Flopy version 3.3.5 on 11/06/2021 at 15:07:50.
BEGIN options
  DIGITS  9
END options

BEGIN continuous  FILEOUT  riv.csv
  riv  riv  riv
END continuous  FILEOUT  riv.csv

