# File generated by Flopy version 3.3.5 on 09/19/2021 at 12:03:18.
BEGIN options
  PRINT_FLOWS
  SAVE_FLOWS
END options

BEGIN packages
  disv6  sgn.disv  disv
  ic6  sgn.ic  ic
  npf6  sgn.npf  npf
  rch6  sgn.rch  rch
  riv6  sgn.riv  riv_0
  drn6  sgn.drn  drn_0
  wel6  sgn.wel  wel_0
  ghb6  sgn.ghb  ghb_0
  obs6  sgn.obs  obs_5
  oc6  sgn.oc  oc
  sto6  sgn.sto  sto
END packages

