# File generated by Flopy version 3.3.4 on 11/01/2021 at 14:41:15.
BEGIN options
  DIGITS  9
END options

BEGIN continuous  FILEOUT  rch.csv
  rch  rch  rch
END continuous  FILEOUT  rch.csv

