# File generated by Flopy version 3.3.4 on 11/01/2021 at 14:41:17.
BEGIN options
END options

BEGIN griddata
  iconvert
    CONSTANT  0
  ss
    CONSTANT       0.00000000
  sy
    CONSTANT       0.00000000
END griddata

BEGIN period  1
  STEADY-STATE
END period  1

