# File generated by Flopy version 3.3.4 on 11/01/2021 at 14:41:15.
BEGIN options
  SAVE_FLOWS
  K33OVERK
END options

BEGIN griddata
  icelltype
    CONSTANT  0
  k
    OPEN/CLOSE  'sgn.k1.txt'  FACTOR  1.0
  k33
    CONSTANT       0.10000000
END griddata

