# File generated by Flopy version 3.3.5 on 11/06/2021 at 15:07:50.
BEGIN options
  DIGITS  9
END options

BEGIN continuous  FILEOUT  drn_surf.csv
  surf-drn  drn  surf-drn
END continuous  FILEOUT  drn_surf.csv

