# File generated by Flopy version 3.3.3 on 07/03/2021 at 16:27:42.
BEGIN options
  DIGITS  9
END options

BEGIN continuous  FILEOUT  drn_surf.csv
  surf-drn  drn  surf-drn
END continuous  FILEOUT  drn_surf.csv

