# File generated by Flopy version 3.3.5 on 09/19/2021 at 12:03:21.
BEGIN options
  auxiliary  multiplier
  AUXMULTNAME  multiplier
  BOUNDNAMES
  PRINT_INPUT
  PRINT_FLOWS
  SAVE_FLOWS
  OBS6  FILEIN  sgn.rch.obs
END options

BEGIN dimensions
  MAXBOUND  28049
END dimensions

BEGIN period  1
    OPEN/CLOSE  'sgn.rch_stress_period_data_1.txt'
END period  1

