# File generated by Flopy version 3.3.4 on 11/01/2021 at 14:41:16.
BEGIN options
  DIGITS  9
END options

BEGIN continuous  FILEOUT  drn_surf.csv
  surf-drn  drn  surf-drn
END continuous  FILEOUT  drn_surf.csv

