# File generated by Flopy version 3.3.5 on 09/19/2021 at 12:03:21.
BEGIN options
  DIGITS  9
END options

BEGIN continuous  FILEOUT  riv.csv
  riv  riv  riv
END continuous  FILEOUT  riv.csv

