# File generated by Flopy version 3.3.5 on 11/06/2021 at 15:07:51.
BEGIN options
  BOUNDNAMES
  OBS6  FILEIN  sgn.ghb.obs
END options

BEGIN dimensions
  MAXBOUND  361
END dimensions

BEGIN period  1
    OPEN/CLOSE  'sgn.ghb_stress_period_data_1.txt'
END period  1

