# File generated by Flopy version 3.3.4 on 11/01/2021 at 14:41:17.
BEGIN options
  BUDGET  FILEOUT  sgn.cbb
  HEAD  FILEOUT  sgn.hds
  HEAD  PRINT_FORMAT  COLUMNS  10  WIDTH  15  DIGITS  6  general
END options

BEGIN period  1
  SAVE  head  last
  SAVE  budget  last
  PRINT  head  last
  PRINT  budget  all
END period  1

