# File generated by Flopy version 3.3.3 on 07/03/2021 at 16:27:41.
BEGIN options
  SAVE_FLOWS
  K33OVERK
END options

BEGIN griddata
  icelltype
    CONSTANT  0
  k
    OPEN/CLOSE  'sgn.k1.txt'  FACTOR  1.0
  k33
    CONSTANT       0.10000000
END griddata

