# File generated by Flopy version 3.3.5 on 09/19/2021 at 12:03:22.
BEGIN options
  DIGITS  9
  PRINT_INPUT
END options

BEGIN continuous  FILEOUT  ghb.csv
  ghb1  ghb  ghb1
  ghb1  ghb  ghb1
  ghb1  ghb  ghb1
  ghb1  ghb  ghb1
  ghb1  ghb  ghb1
  ghb1  ghb  ghb1
  ghb1  ghb  ghb1
  ghb1  ghb  ghb1
  ghb1  ghb  ghb1
  ghb1  ghb  ghb1
  ghb1  ghb  ghb1
  ghb1  ghb  ghb1
  ghb1  ghb  ghb1
  ghb1  ghb  ghb1
  ghb1  ghb  ghb1
  ghb1  ghb  ghb1
  ghb1  ghb  ghb1
  ghb1  ghb  ghb1
  ghb1  ghb  ghb1
  ghb1  ghb  ghb1
  ghb1  ghb  ghb1
  ghb1  ghb  ghb1
  ghb1  ghb  ghb1
  ghb1  ghb  ghb1
  ghb1  ghb  ghb1
  ghb1  ghb  ghb1
  ghb1  ghb  ghb1
  ghb1  ghb  ghb1
  ghb1  ghb  ghb1
  ghb1  ghb  ghb1
  ghb1  ghb  ghb1
  ghb1  ghb  ghb1
  ghb1  ghb  ghb1
  ghb1  ghb  ghb1
  ghb1  ghb  ghb1
  ghb1  ghb  ghb1
  ghb1  ghb  ghb1
  ghb1  ghb  ghb1
  ghb1  ghb  ghb1
  ghb1  ghb  ghb1
  ghb1  ghb  ghb1
  ghb1  ghb  ghb1
  ghb1  ghb  ghb1
  ghb1  ghb  ghb1
  ghb1  ghb  ghb1
  ghb1  ghb  ghb1
  ghb1  ghb  ghb1
  ghb1  ghb  ghb1
  ghb1  ghb  ghb1
  ghb1  ghb  ghb1
  ghb1  ghb  ghb1
  ghb1  ghb  ghb1
  ghb1  ghb  ghb1
  ghb1  ghb  ghb1
  ghb1  ghb  ghb1
  ghb1  ghb  ghb1
  ghb1  ghb  ghb1
  ghb1  ghb  ghb1
  ghb1  ghb  ghb1
  ghb1  ghb  ghb1
  ghb1  ghb  ghb1
  ghb1  ghb  ghb1
  ghb1  ghb  ghb1
  ghb1  ghb  ghb1
  ghb1  ghb  ghb1
  ghb1  ghb  ghb1
  ghb1  ghb  ghb1
  ghb1  ghb  ghb1
  ghb1  ghb  ghb1
  ghb1  ghb  ghb1
  ghb1  ghb  ghb1
  ghb1  ghb  ghb1
  ghb1  ghb  ghb1
  ghb1  ghb  ghb1
  ghb1  ghb  ghb1
  ghb1  ghb  ghb1
  ghb1  ghb  ghb1
  ghb1  ghb  ghb1
  ghb1  ghb  ghb1
  ghb1  ghb  ghb1
  ghb1  ghb  ghb1
  ghb1  ghb  ghb1
  ghb1  ghb  ghb1
  ghb1  ghb  ghb1
  ghb1  ghb  ghb1
  ghb1  ghb  ghb1
  ghb1  ghb  ghb1
  ghb1  ghb  ghb1
  ghb1  ghb  ghb1
  ghb1  ghb  ghb1
  ghb1  ghb  ghb1
  ghb1  ghb  ghb1
  ghb1  ghb  ghb1
  ghb1  ghb  ghb1
  ghb1  ghb  ghb1
  ghb1  ghb  ghb1
  ghb1  ghb  ghb1
  ghb1  ghb  ghb1
  ghb1  ghb  ghb1
  ghb1  ghb  ghb1
  ghb1  ghb  ghb1
  ghb1  ghb  ghb1
  ghb1  ghb  ghb1
  ghb1  ghb  ghb1
  ghb1  ghb  ghb1
  ghb1  ghb  ghb1
  ghb1  ghb  ghb1
  ghb1  ghb  ghb1
  ghb1  ghb  ghb1
  ghb1  ghb  ghb1
  ghb1  ghb  ghb1
  ghb1  ghb  ghb1
  ghb1  ghb  ghb1
  ghb1  ghb  ghb1
  ghb1  ghb  ghb1
  ghb1  ghb  ghb1
  ghb1  ghb  ghb1
  ghb1  ghb  ghb1
  ghb1  ghb  ghb1
  ghb1  ghb  ghb1
  ghb1  ghb  ghb1
  ghb1  ghb  ghb1
  ghb1  ghb  ghb1
  ghb1  ghb  ghb1
  ghb1  ghb  ghb1
  ghb1  ghb  ghb1
  ghb1  ghb  ghb1
  ghb1  ghb  ghb1
  ghb1  ghb  ghb1
  ghb1  ghb  ghb1
  ghb1  ghb  ghb1
  ghb1  ghb  ghb1
  ghb1  ghb  ghb1
  ghb1  ghb  ghb1
  ghb1  ghb  ghb1
  ghb1  ghb  ghb1
  ghb1  ghb  ghb1
  ghb1  ghb  ghb1
  ghb1  ghb  ghb1
  ghb1  ghb  ghb1
  ghb1  ghb  ghb1
  ghb1  ghb  ghb1
  ghb1  ghb  ghb1
  ghb1  ghb  ghb1
  ghb1  ghb  ghb1
  ghb1  ghb  ghb1
  ghb1  ghb  ghb1
  ghb1  ghb  ghb1
  ghb1  ghb  ghb1
  ghb1  ghb  ghb1
  ghb1  ghb  ghb1
  ghb1  ghb  ghb1
  ghb1  ghb  ghb1
  ghb1  ghb  ghb1
  ghb1  ghb  ghb1
  ghb1  ghb  ghb1
  ghb1  ghb  ghb1
  ghb1  ghb  ghb1
  ghb1  ghb  ghb1
  ghb1  ghb  ghb1
  ghb1  ghb  ghb1
  ghb1  ghb  ghb1
  ghb1  ghb  ghb1
  ghb1  ghb  ghb1
  ghb1  ghb  ghb1
  ghb1  ghb  ghb1
  ghb1  ghb  ghb1
  ghb1  ghb  ghb1
  ghb1  ghb  ghb1
  ghb1  ghb  ghb1
  ghb1  ghb  ghb1
  ghb1  ghb  ghb1
  ghb1  ghb  ghb1
  ghb1  ghb  ghb1
  ghb1  ghb  ghb1
  ghb1  ghb  ghb1
  ghb1  ghb  ghb1
  ghb1  ghb  ghb1
  ghb1  ghb  ghb1
  ghb1  ghb  ghb1
  ghb1  ghb  ghb1
  ghb1  ghb  ghb1
  ghb1  ghb  ghb1
  ghb1  ghb  ghb1
  ghb1  ghb  ghb1
  ghb1  ghb  ghb1
  ghb1  ghb  ghb1
  ghb1  ghb  ghb1
  ghb1  ghb  ghb1
  ghb1  ghb  ghb1
  ghb1  ghb  ghb1
  ghb1  ghb  ghb1
  ghb1  ghb  ghb1
  ghb1  ghb  ghb1
  ghb1  ghb  ghb1
  ghb1  ghb  ghb1
  ghb1  ghb  ghb1
  ghb1  ghb  ghb1
  ghb1  ghb  ghb1
  ghb1  ghb  ghb1
  ghb1  ghb  ghb1
  ghb1  ghb  ghb1
  ghb1  ghb  ghb1
  ghb1  ghb  ghb1
  ghb1  ghb  ghb1
  ghb1  ghb  ghb1
  ghb1  ghb  ghb1
  ghb1  ghb  ghb1
  ghb1  ghb  ghb1
  ghb1  ghb  ghb1
  ghb1  ghb  ghb1
  ghb1  ghb  ghb1
  ghb1  ghb  ghb1
  ghb1  ghb  ghb1
  ghb1  ghb  ghb1
  ghb1  ghb  ghb1
  ghb1  ghb  ghb1
  ghb1  ghb  ghb1
  ghb1  ghb  ghb1
  ghb1  ghb  ghb1
  ghb1  ghb  ghb1
  ghb1  ghb  ghb1
  ghb1  ghb  ghb1
  ghb1  ghb  ghb1
  ghb1  ghb  ghb1
  ghb1  ghb  ghb1
  ghb1  ghb  ghb1
  ghb1  ghb  ghb1
  ghb1  ghb  ghb1
  ghb1  ghb  ghb1
  ghb1  ghb  ghb1
  ghb1  ghb  ghb1
  ghb1  ghb  ghb1
  ghb1  ghb  ghb1
  ghb1  ghb  ghb1
  ghb1  ghb  ghb1
  ghb1  ghb  ghb1
  ghb1  ghb  ghb1
  ghb1  ghb  ghb1
  ghb1  ghb  ghb1
  ghb1  ghb  ghb1
  ghb1  ghb  ghb1
  ghb1  ghb  ghb1
  ghb1  ghb  ghb1
  ghb1  ghb  ghb1
  ghb1  ghb  ghb1
  ghb1  ghb  ghb1
  ghb1  ghb  ghb1
  ghb1  ghb  ghb1
  ghb1  ghb  ghb1
  ghb1  ghb  ghb1
  ghb1  ghb  ghb1
  ghb1  ghb  ghb1
  ghb1  ghb  ghb1
  ghb1  ghb  ghb1
  ghb1  ghb  ghb1
  ghb1  ghb  ghb1
  ghb1  ghb  ghb1
  ghb1  ghb  ghb1
  ghb1  ghb  ghb1
  ghb1  ghb  ghb1
  ghb1  ghb  ghb1
  ghb1  ghb  ghb1
  ghb1  ghb  ghb1
  ghb1  ghb  ghb1
  ghb1  ghb  ghb1
  ghb1  ghb  ghb1
  ghb1  ghb  ghb1
  ghb1  ghb  ghb1
  ghb1  ghb  ghb1
  ghb1  ghb  ghb1
  ghb1  ghb  ghb1
  ghb1  ghb  ghb1
  ghb1  ghb  ghb1
  ghb1  ghb  ghb1
  ghb1  ghb  ghb1
  ghb1  ghb  ghb1
  ghb1  ghb  ghb1
  ghb1  ghb  ghb1
  ghb1  ghb  ghb1
  ghb1  ghb  ghb1
  ghb1  ghb  ghb1
  ghb1  ghb  ghb1
  ghb1  ghb  ghb1
  ghb1  ghb  ghb1
  ghb1  ghb  ghb1
  ghb1  ghb  ghb1
  ghb1  ghb  ghb1
  ghb1  ghb  ghb1
  ghb1  ghb  ghb1
  ghb1  ghb  ghb1
  ghb1  ghb  ghb1
  ghb1  ghb  ghb1
  ghb1  ghb  ghb1
  ghb1  ghb  ghb1
  ghb1  ghb  ghb1
  ghb1  ghb  ghb1
  ghb1  ghb  ghb1
  ghb1  ghb  ghb1
  ghb1  ghb  ghb1
  ghb1  ghb  ghb1
  ghb1  ghb  ghb1
  ghb1  ghb  ghb1
  ghb1  ghb  ghb1
  ghb1  ghb  ghb1
  ghb1  ghb  ghb1
  ghb1  ghb  ghb1
  ghb1  ghb  ghb1
  ghb1  ghb  ghb1
  ghb1  ghb  ghb1
  ghb1  ghb  ghb1
  ghb1  ghb  ghb1
  ghb1  ghb  ghb1
  ghb1  ghb  ghb1
  ghb1  ghb  ghb1
  ghb1  ghb  ghb1
  ghb1  ghb  ghb1
  ghb1  ghb  ghb1
  ghb1  ghb  ghb1
  ghb1  ghb  ghb1
  ghb1  ghb  ghb1
  ghb1  ghb  ghb1
  ghb1  ghb  ghb1
  ghb1  ghb  ghb1
  ghb1  ghb  ghb1
  ghb1  ghb  ghb1
  ghb1  ghb  ghb1
  ghb1  ghb  ghb1
  ghb1  ghb  ghb1
  ghb1  ghb  ghb1
  ghb1  ghb  ghb1
  ghb1  ghb  ghb1
  ghb1  ghb  ghb1
  ghb1  ghb  ghb1
  ghb1  ghb  ghb1
  ghb1  ghb  ghb1
  ghb1  ghb  ghb1
  ghb1  ghb  ghb1
  ghb1  ghb  ghb1
  ghb1  ghb  ghb1
  ghb1  ghb  ghb1
  ghb1  ghb  ghb1
  ghb1  ghb  ghb1
  ghb1  ghb  ghb1
  ghb1  ghb  ghb1
  ghb1  ghb  ghb1
  ghb1  ghb  ghb1
  ghb1  ghb  ghb1
  ghb1  ghb  ghb1
  ghb1  ghb  ghb1
  ghb1  ghb  ghb1
  ghb1  ghb  ghb1
  ghb1  ghb  ghb1
  ghb1  ghb  ghb1
  ghb1  ghb  ghb1
  ghb1  ghb  ghb1
  ghb1  ghb  ghb1
  ghb1  ghb  ghb1
  ghb1  ghb  ghb1
  ghb1  ghb  ghb1
  ghb1  ghb  ghb1
END continuous  FILEOUT  ghb.csv

