# File generated by Flopy version 3.3.5 on 11/06/2021 at 15:07:46.
BEGIN options
  TIME_UNITS  seconds
  START_DATE_TIME  2021-06-01
END options

BEGIN dimensions
  NPER  1
END dimensions

BEGIN perioddata
  1.57680000E+09  4       1.10000000
END perioddata

