# File generated by Flopy version 3.3.4 on 08/25/2021 at 10:45:20.
BEGIN options
  COMPLEXITY  simple
END options

BEGIN linear
  LINEAR_ACCELERATION  bicgstab
END linear

