# File generated by Flopy version 3.3.4 on 08/25/2021 at 10:45:20.
BEGIN options
  BUDGET  FILEOUT  symp01.cbb
  HEAD  FILEOUT  symp01.hds
END options

BEGIN period  1
  SAVE  head  all
  SAVE  budget  all
  PRINT  head  last
END period  1

