# File generated by Flopy version 3.3.4 on 08/25/2021 at 10:45:20.
BEGIN options
  BOUNDNAMES
END options

BEGIN dimensions
  MAXBOUND  10
END dimensions

BEGIN period  1
  1 8 1      45.00000000    1000.00000000      40.00000000
  1 8 2      45.00000000    1000.00000000      40.00000000
  1 8 3      45.00000000    1000.00000000      40.00000000
  1 8 4      45.00000000    1000.00000000      40.00000000
  1 8 5      45.00000000    1000.00000000      40.00000000
  1 8 6      45.00000000    1000.00000000      40.00000000
  1 8 7      45.00000000    1000.00000000      40.00000000
  1 8 8      45.00000000    1000.00000000      40.00000000
  1 8 9      45.00000000    1000.00000000      40.00000000
  1 8 10      45.00000000    1000.00000000      40.00000000
END period  1

