# File generated by Flopy version 3.3.4 on 08/29/2021 at 15:41:47.
BEGIN options
  PRINT_FLOWS
  SAVE_FLOWS
END options

BEGIN packages
  dis6  symp01.dis  dis
  ic6  symp01.ic  ic
  npf6  symp01.npf  npf
  rch6  symp01.rcha  rch
  riv6  symp01.riv  riv_0
  oc6  symp01.oc  oc
END packages

