# File generated by Flopy version 3.3.4 on 08/29/2021 at 15:41:47.
BEGIN options
  BOUNDNAMES
END options

BEGIN dimensions
  MAXBOUND  2
END dimensions

BEGIN period  1
  1 8 1      99.00000000      99.00000000      99.00000000
  1 8 10      99.00000000      99.00000000      99.00000000
END period  1

