# File generated by Flopy version 3.3.4 on 08/25/2021 at 10:45:20.
BEGIN options
  SAVE_FLOWS
  SAVE_SPECIFIC_DISCHARGE
END options

BEGIN griddata
  icelltype  LAYERED
    CONSTANT  1
    CONSTANT  0
    CONSTANT  0
  k  LAYERED
    CONSTANT       2.50000000
    CONSTANT       0.10000000
    CONSTANT      10.00000000
END griddata

