# File generated by Flopy version 3.3.3 on 05/29/2021 at 19:14:43.
BEGIN options
END options

BEGIN TIMING
  TDIS6  SGN.tdis
END TIMING

BEGIN MODELS
  gwf6  SGN.nam  mf6model
END MODELS

BEGIN EXCHANGES
END EXCHANGES

BEGIN SOLUTIONGROUP  1
  ims6  SGN.ims  mf6model
END SOLUTIONGROUP  1

