# File generated by Flopy version 3.3.3 on 06/05/2021 at 14:44:13.
BEGIN OPTIONS
  BUDGET  FILEOUT  SGN.cbb
  HEAD  FILEOUT  SGN.hds
END OPTIONS

BEGIN PERIOD  1
  SAVE  head  frequency  1
  SAVE  budget  frequency  1
  PRINT  budget  frequency  1
END PERIOD  1

