# File generated by Flopy version 3.3.3 on 06/05/2021 at 14:44:00.
BEGIN OPTIONS
  TIME_UNITS  seconds
END OPTIONS

BEGIN DIMENSIONS
  NPER  1
END DIMENSIONS

BEGIN PERIODDATA
      10.00000000  1       1.20000000
END PERIODDATA

