# File generated by Flopy version 3.3.3 on 05/29/2021 at 18:28:16.
BEGIN OPTIONS
  PRINT_FLOWS
  SAVE_FLOWS
  AUTO_FLOW_REDUCE       0.00000000
END OPTIONS

BEGIN DIMENSIONS
  MAXBOUND  194
END DIMENSIONS

BEGIN PERIOD  1
  4476       0.00000000
  4475       0.00000000
  4480       0.00000000
  4481       0.00000000
  4855       0.00000000
  5256       0.00000000
  5673       0.00000000
  5655       0.00000000
  5244       0.00000000
  5239       0.00000000
  5222       0.00000000
  9543       0.00000000
  9560       0.00000000
  10052       0.00000000
  10062       0.00000000
  10079       0.00000000
  10576       0.00000000
  10581       0.00000000
  10598       0.00000000
  11065       0.00000000
  11070       0.00000000
  4833       0.00000000
  12188       0.00000000
  12635       0.00000000
  12636       0.00000000
  12636       0.00000000
  12637       0.00000000
  13789       0.00000000
  13792       0.00000000
  13792       0.00000000
  13791       0.00000000
  13794       0.00000000
  13026       0.00000000
  13029       0.00000000
  13030       0.00000000
  12628       0.00000000
  13773       0.00000000
  14100       0.00000000
  14099       0.00000000
  14102       0.00000000
  41348       0.00000000
  41345       0.00000000
  9406       0.00000000
  10175       0.00000000
  10448       0.00000000
  12187       0.00000000
  12187       0.00000000
  12613       0.00000000
  12613       0.00000000
  13393       0.00000000
  13393       0.00000000
  13391       0.00000000
  13391       0.00000000
  2095      -0.00499990
  18803  -1.00772800E-07
  1847      -0.00499993
  18555  -6.97660800E-08
  35532      -0.00100000
  1716      -0.00995109
  18424  -1.48694100E-07
  35132      -0.01004877
  1373      -0.02140000
  2529      -0.00300000
  35049      -0.02000000
  1549      -0.03162162
  18257  -6.21657200E-07
  34965      -0.01837776
  400       0.00000000
  3050       0.00000000
  5168      -0.00500000
  5558       0.00000000
  1345      -0.01000000
  1507      -0.00800000
  1430      -0.01200000
  460      -0.02250000
  460      -0.02250000
  3626       0.00000000
  6255      -0.00202955
  22963  -5.19167100E-08
  39671      -0.00601040
  5808  -7.13711600E-04
  22516  -4.10708700E-08
  39224      -0.00732625
  40664      -0.00804000
  17340  -4.87505400E-09
  34048      -0.01209000
  17251  -8.82943700E-08
  33959      -0.01208991
  17417  -7.00944500E-08
  34125      -0.01208993
  34374      -0.01209000
  17414  -1.54690200E-07
  34122      -0.01208985
  15529       0.00000000
  19033  -1.09166700E-08
  35741      -0.01043999
  18885  -4.14364600E-08
  35593      -0.01043996
  7250      -0.00119315
  23958  -3.89838600E-08
  40666      -0.00684681
  8280  -6.81930400E-04
  24988  -3.90628100E-08
  41696      -0.00735803
  17580  -4.06839900E-08
  34288      -0.01208996
  17828  -4.05822400E-08
  34536      -0.01208996
  17248  -2.30042200E-08
  33956      -0.01208998
  17918  -1.16492200E-08
  34626      -0.01208999
  13768       0.00000000
  14100       0.00000000
  7186       0.00000000
  7191       0.00000000
  1299      -0.00800000
  1383      -0.00800000
  1466      -0.00800000
  1462       0.00600000
  1462       0.00600000
  1546       0.00600000
  1546       0.00600000
  1712       0.02400000
  1538      -0.02140000
  1289       0.02140000
  1454       0.02140000
  1713      -0.00600000
  1713      -0.00600000
  18421  -9.58224100E-10
  1630       0.00600000
  1713       0.00600000
  1712       0.01200000
  1796       0.00000000
  1796       0.00000000
  1713       0.00800000
  4636       0.00000000
  4283       0.00000000
  4284       0.00000000
  4285       0.00000000
  4636       0.00000000
  4637       0.00000000
  6787       0.00000000
  6787       0.00000000
  7294       0.00000000
  6788       0.00000000
  7295       0.00000000
  6791       0.00000000
  6791       0.00000000
  6790       0.00000000
  12188       0.00600000
  1497       0.00000000
  1497       0.00000000
  359       0.00000000
  359       0.00000000
  443       0.00000000
  443       0.00000000
  444       0.00000000
  444       0.00000000
  444       0.00000000
  445       0.00000000
  1597       0.00000000
  1679       0.00000000
  1597       0.00000000
  1680       0.00000000
  4796       0.00000000
  16273       0.00000000
  16022       0.00000000
  16185       0.00000000
  16101       0.00000000
  500      -0.00350000
  500       0.00000000
  10814       0.00000000
  10814       0.00000000
  10814       0.00000000
  11747       0.00000000
  11747       0.00000000
  11747       0.00000000
  11746       0.00000000
  7210      -0.00440133
  23918  -1.90580200E-08
  40626      -0.00509865
  6683      -0.00286321
  23391  -2.72673100E-08
  40099      -0.00663676
  7216      -0.00441263
  23924  -1.87818300E-08
  40632      -0.00508735
  6701      -0.00439797
  23409  -1.99453100E-08
  40117      -0.00510201
  5332      -0.00291309
  22040  -2.94472600E-08
  38748      -0.00658688
END PERIOD  1

