# File generated by Flopy version 3.3.3 on 05/29/2021 at 19:14:56.
BEGIN OPTIONS
  PRINT_FLOWS
  SAVE_FLOWS
END OPTIONS

BEGIN DIMENSIONS
  MAXBOUND  203
END DIMENSIONS

BEGIN PERIOD  1
  146     107.32000000       0.00250000     106.32000000
  229     107.27400200       0.00250000     106.27400200
  312     107.18800400       0.00250000     106.18800400
  395     106.98200200       0.00250000     105.98200200
  478     107.04499800       0.00250000     106.04499800
  479     107.02600100       0.00250000     106.02600100
  562     107.00099900       0.00250000     106.00099900
  645     106.86499800       0.00250000     105.86499800
  728     106.83899700       0.00250000     105.83899700
  811     106.72200000       0.00250000     105.72200000
  894     106.59600100       0.00250000     105.59600100
  895     106.57800300       0.00250000     105.57800300
  978     106.54000100       0.00250000     105.54000100
  979     106.43299900       0.00250000     105.43299900
  1062     106.38400300       0.00250000     105.38400300
  1063     106.41400100       0.00250000     105.41400100
  1064     106.29799700       0.00250000     105.29799700
  1147     106.23999800       0.00250000     105.23999800
  1229     106.12300100       0.00250000     105.12300100
  1312     106.12699900       0.00250000     105.12699900
  1395     106.08100100       0.00250000     105.08100100
  1479     105.98700000       0.00250000     104.98700000
  1562     105.85099800       0.00250000     104.85099800
  1645     105.73400100       0.00250000     104.73400100
  1728     105.74800100       0.00250000     104.74800100
  1811     105.78199800       0.00250000     104.78199800
  1895     105.59700000       0.00250000     104.59700000
  1978     105.50000000       0.00250000     104.50000000
  1979     105.44300100       0.00250000     104.44300100
  2062     105.48600000       0.00250000     104.48600000
  8771     102.67199700       0.00250000     101.67199700
  9277     102.59700000       0.00250000     101.59700000
  9776     104.18100000       0.00250000     103.18100000
  9777     104.51100200       0.00250000     103.51100200
  10279     102.72499800       0.00250000     101.72499800
  10764     102.63999900       0.00250000     101.63999900
  11234     102.60299700       0.00250000     101.60299700
  11691     102.88700100       0.00250000     101.88700100
  12134     102.78299700       0.00250000     101.78299700
  12135     102.85500300       0.00250000     101.85500300
  12563     102.55699900       0.00250000     101.55699900
  12967     102.75099900       0.00250000     101.75099900
  13343     102.60600300       0.00250000     101.60600300
  13344     102.72499800       0.00250000     101.72499800
  13714     102.59100300       0.00250000     101.59100300
  14049     102.48500100       0.00250000     101.48500100
  14341     102.61900300       0.00250000     101.61900300
  14571     100.98300200       0.00250000      99.98300200
  14342     101.13099700       0.00250000     100.13099700
  14748     100.83699800       0.00250000      99.83699800
  14915     100.78199800       0.00250000      99.78199800
  15067     100.70600100       0.00250000      99.70600100
  15213     100.68900300       0.00250000      99.68900300
  15214     100.72200000       0.00250000      99.72200000
  15351     100.63500200       0.00250000      99.63500200
  15482     100.58899700       0.00250000      99.58899700
  15601     100.57099900       0.00250000      99.57099900
  15602     100.51300000       0.00250000      99.51300000
  15703     100.49800100       0.00250000      99.49800100
  15786     100.47200000       0.00250000      99.47200000
  15869     100.42700200       0.00250000      99.42700200
  15953     100.23100300       0.00250000      99.23100300
  16036     100.48400100       0.00250000      99.48400100
  16119     100.36900300       0.00250000      99.36900300
  16202     100.37200200       0.00250000      99.37200200
  16203     100.32299800       0.00250000      99.32299800
  16286     100.29799700       0.00250000      99.29799700
  16369     100.21099900       0.00250000      99.21099900
  16452     100.18599700       0.00250000      99.18599700
  16535     100.23000300       0.00250000      99.23000300
  16618      99.99400300       0.00250000      98.99400300
  2308     105.56199600  6.25000000E-04     104.56199600
  2309     105.56199600  6.25000000E-04     104.56199600
  2310     105.56199600  6.25000000E-04     104.56199600
  2311     105.56199600  6.25000000E-04     104.56199600
  2172     105.45900000  6.25000000E-04     104.45900000
  2173     105.45900000  6.25000000E-04     104.45900000
  2174     105.45900000  6.25000000E-04     104.45900000
  2175     105.45900000  6.25000000E-04     104.45900000
  2468     105.21700300  6.25000000E-04     104.21700300
  2469     105.21700300  6.25000000E-04     104.21700300
  2470     105.21700300  6.25000000E-04     104.21700300
  2471     105.21700300  6.25000000E-04     104.21700300
  2472     105.50800300  6.25000000E-04     104.50800300
  2473     105.50800300  6.25000000E-04     104.50800300
  2474     105.50800300  6.25000000E-04     104.50800300
  2475     105.50800300  6.25000000E-04     104.50800300
  2476     105.37899800  6.25000000E-04     104.37899800
  2477     105.37899800  6.25000000E-04     104.37899800
  2478     105.37899800  6.25000000E-04     104.37899800
  2479     105.37899800  6.25000000E-04     104.37899800
  2480     105.18800400  6.25000000E-04     104.18800400
  2481     105.18800400  6.25000000E-04     104.18800400
  2482     105.18800400  6.25000000E-04     104.18800400
  2483     105.18800400  6.25000000E-04     104.18800400
  2484     105.31700100  6.25000000E-04     104.31700100
  2485     105.31700100  6.25000000E-04     104.31700100
  2486     105.31700100  6.25000000E-04     104.31700100
  2487     105.31700100  6.25000000E-04     104.31700100
  2488     105.31700100  6.25000000E-04     104.31700100
  2489     105.31700100  6.25000000E-04     104.31700100
  2490     105.31700100  6.25000000E-04     104.31700100
  2491     105.31700100  6.25000000E-04     104.31700100
  2492     105.25700400  6.25000000E-04     104.25700400
  2493     105.25700400  6.25000000E-04     104.25700400
  2494     105.25700400  6.25000000E-04     104.25700400
  2495     105.25700400  6.25000000E-04     104.25700400
  2496     105.29900400  6.25000000E-04     104.29900400
  2497     105.29900400  6.25000000E-04     104.29900400
  2498     105.29900400  6.25000000E-04     104.29900400
  2499     105.29900400  6.25000000E-04     104.29900400
  2663     105.12100200  6.25000000E-04     104.12100200
  2664     105.12100200  6.25000000E-04     104.12100200
  2665     105.12100200  6.25000000E-04     104.12100200
  2666     105.12100200  6.25000000E-04     104.12100200
  2667     105.39299800  6.25000000E-04     104.39299800
  2668     105.39299800  6.25000000E-04     104.39299800
  2669     105.39299800  6.25000000E-04     104.39299800
  2670     105.39299800  6.25000000E-04     104.39299800
  2837     105.28399700  6.25000000E-04     104.28399700
  2838     105.28399700  6.25000000E-04     104.28399700
  2839     105.28399700  6.25000000E-04     104.28399700
  2840     105.28399700  6.25000000E-04     104.28399700
  2841     105.27600100  6.25000000E-04     104.27600100
  2842     105.27600100  6.25000000E-04     104.27600100
  2843     105.27600100  6.25000000E-04     104.27600100
  2844     105.27600100  6.25000000E-04     104.27600100
  3017     105.27800000  6.25000000E-04     104.27800000
  3018     105.27800000  6.25000000E-04     104.27800000
  3019     105.27800000  6.25000000E-04     104.27800000
  3020     105.27800000  6.25000000E-04     104.27800000
  3021     105.06900000  6.25000000E-04     104.06900000
  3022     105.06900000  6.25000000E-04     104.06900000
  3023     105.06900000  6.25000000E-04     104.06900000
  3024     105.06900000  6.25000000E-04     104.06900000
  3203     105.13300300  6.25000000E-04     104.13300300
  3204     105.13300300  6.25000000E-04     104.13300300
  3205     105.13300300  6.25000000E-04     104.13300300
  3206     105.13300300  6.25000000E-04     104.13300300
  3395     105.01699800  6.25000000E-04     104.01699800
  3396     105.01699800  6.25000000E-04     104.01699800
  3397     105.01699800  6.25000000E-04     104.01699800
  3398     105.01699800  6.25000000E-04     104.01699800
  3606     105.11299900  6.25000000E-04     104.11299900
  3607     105.11299900  6.25000000E-04     104.11299900
  3608     105.11299900  6.25000000E-04     104.11299900
  3609     105.11299900  6.25000000E-04     104.11299900
  3908     105.18699600  6.25000000E-04     104.18699600
  3909     105.18699600  6.25000000E-04     104.18699600
  3910     105.18699600  6.25000000E-04     104.18699600
  3911     105.18699600  6.25000000E-04     104.18699600
  4236     103.25099900  6.25000000E-04     102.25099900
  4237     103.25099900  6.25000000E-04     102.25099900
  4238     103.25099900  6.25000000E-04     102.25099900
  4239     103.25099900  6.25000000E-04     102.25099900
  4240     103.29000100  6.25000000E-04     102.29000100
  4241     103.29000100  6.25000000E-04     102.29000100
  4242     103.29000100  6.25000000E-04     102.29000100
  4243     103.29000100  6.25000000E-04     102.29000100
  4589     103.25399800  6.25000000E-04     102.25399800
  4590     103.25399800  6.25000000E-04     102.25399800
  4591     103.25399800  6.25000000E-04     102.25399800
  4592     103.25399800  6.25000000E-04     102.25399800
  4585     103.16500100  6.25000000E-04     102.16500100
  4586     103.16500100  6.25000000E-04     102.16500100
  4587     103.16500100  6.25000000E-04     102.16500100
  4588     103.16500100  6.25000000E-04     102.16500100
  4968     103.12799800  6.25000000E-04     102.12799800
  4969     103.12799800  6.25000000E-04     102.12799800
  4970     103.12799800  6.25000000E-04     102.12799800
  4971     103.12799800  6.25000000E-04     102.12799800
  5375     103.08300000  6.25000000E-04     102.08300000
  5376     103.08300000  6.25000000E-04     102.08300000
  5377     103.08300000  6.25000000E-04     102.08300000
  5378     103.08300000  6.25000000E-04     102.08300000
  5785     103.09700000  6.25000000E-04     102.09700000
  5786     103.09700000  6.25000000E-04     102.09700000
  5787     103.09700000  6.25000000E-04     102.09700000
  5788     103.09700000  6.25000000E-04     102.09700000
  6234     103.12999700  6.25000000E-04     102.12999700
  6235     103.12999700  6.25000000E-04     102.12999700
  6236     103.12999700  6.25000000E-04     102.12999700
  6237     103.12999700  6.25000000E-04     102.12999700
  6722     102.95600100  6.25000000E-04     101.95600100
  6723     102.95600100  6.25000000E-04     101.95600100
  6724     102.95600100  6.25000000E-04     101.95600100
  6725     102.95600100  6.25000000E-04     101.95600100
  6718     102.91799900  6.25000000E-04     101.91799900
  6719     102.91799900  6.25000000E-04     101.91799900
  6720     102.91799900  6.25000000E-04     101.91799900
  6721     102.91799900  6.25000000E-04     101.91799900
  7221     102.84999800  6.25000000E-04     101.84999800
  7222     102.84999800  6.25000000E-04     101.84999800
  7223     102.84999800  6.25000000E-04     101.84999800
  7224     102.84999800  6.25000000E-04     101.84999800
  7742     102.77400200  6.25000000E-04     101.77400200
  7743     102.77400200  6.25000000E-04     101.77400200
  7744     102.77400200  6.25000000E-04     101.77400200
  7745     102.77400200  6.25000000E-04     101.77400200
  8259     102.76899700  6.25000000E-04     101.76899700
  8260     102.76899700  6.25000000E-04     101.76899700
  8261     102.76899700  6.25000000E-04     101.76899700
  8262     102.76899700  6.25000000E-04     101.76899700
END PERIOD  1

