# File generated by Flopy version 3.3.3 on 06/05/2021 at 14:44:13.
BEGIN OPTIONS
  PRINT_FLOWS
  SAVE_FLOWS
END OPTIONS

BEGIN DIMENSIONS
  MAXBOUND  332
END DIMENSIONS

BEGIN PERIOD  1
  1     102.26103700       2.50000000
  2     102.26820200       2.50000000
  3     102.28253300       2.50000000
  4     102.29686300       2.50000000
  5     102.31119400       2.50000000
  6     102.32552400       2.50000000
  7     102.33985500       2.50000000
  8     102.35418500       2.50000000
  9     102.36851600       2.50000000
  10     102.38284600       2.50000000
  11     102.39717700       2.50000000
  12     102.41150700       2.50000000
  13     102.42583800       2.50000000
  14     102.44016800       2.50000000
  15     102.45449900       2.50000000
  16     102.46882900       2.50000000
  17     102.48316000       2.50000000
  18     102.49749000       2.50000000
  19     102.51182100       2.50000000
  20     102.52615100       2.50000000
  21     102.54048200       2.50000000
  22     102.55481200       2.50000000
  23     102.56914300       2.50000000
  24     102.58347300       2.50000000
  25     102.59780400       2.50000000
  26     102.61213500       2.50000000
  27     102.62646500       2.50000000
  28     102.64079600       2.50000000
  29     102.65512600       2.50000000
  30     102.66945700       2.50000000
  31     102.68378700       2.50000000
  32     102.69811800       2.50000000
  33     102.71244800       2.50000000
  34     102.72677900       2.50000000
  35     102.74110900       2.50000000
  36     102.75544000       2.50000000
  37     102.76977000       2.50000000
  38     102.78051800       2.50000000
  39     102.79484800       2.50000000
  40     102.80917900       2.50000000
  41     102.82351000       2.50000000
  42     102.83784000       2.50000000
  43     102.85217100       2.50000000
  44     102.86650100       2.50000000
  45     102.88083200       2.50000000
  46     102.89516200       2.50000000
  47     102.90770100       2.50000000
  48     102.92113600       2.50000000
  49     102.93546700       2.50000000
  50     102.94979700       2.50000000
  51     102.96412800       2.50000000
  52     102.97845800       2.50000000
  53     102.99278900       2.50000000
  54     103.00711900       2.50000000
  55     103.02145000       2.50000000
  56     103.03578000       2.50000000
  57     103.04960800       2.50000000
  58     103.03949800       2.50000000
  59     103.02783200       2.50000000
  60     103.01616700       2.50000000
  61     103.00377200       2.50000000
  62     102.99210700       2.50000000
  63     102.98044100       2.50000000
  64     102.96731800       2.50000000
  65     102.95565200       2.50000000
  66     102.94398700       2.50000000
  67     102.93232100       2.50000000
  68     102.92065600       2.50000000
  69     102.90899000       2.50000000
  70     102.89732500       2.50000000
  71     102.88565900       2.50000000
  72     102.87399400       2.50000000
  73     102.86232800       2.50000000
  74     102.85066300       2.50000000
  75     102.83899700       2.50000000
  76     102.82733200       2.50000000
  77     102.81566600       2.50000000
  78     102.80400100       2.50000000
  79     102.79233500       2.50000000
  80     102.78066900       2.50000000
  81     102.76608800       2.50000000
  82     102.75442200       2.50000000
  83     102.74275700       2.50000000
  16626      99.45598300       4.61370300
  16627      99.42803300       4.61370300
  16628      99.41124300       4.61370300
  16629      99.37766400       4.61370300
  16630      99.34408400       4.61370300
  16631      99.31050500       4.61370300
  16632      99.27692600       4.61370300
  16633      99.24334600       4.61370300
  16634      99.20976700       4.61370300
  16635      99.17618800       4.61370300
  16636      99.14260800       4.61370300
  16637      99.10902900       4.61370300
  16638      99.07545000       4.61370300
  16639      99.04187000       4.61370300
  16640      99.00829100       4.61370300
  16641      98.97471200       4.61370300
  16642      98.94113200       4.61370300
  16643      98.90755300       4.61370300
  16644      98.87397300       4.61370300
  16645      98.84039400       4.61370300
  16646      98.80681500       4.61370300
  16647      98.77323500       4.61370300
  16648      98.73965600       4.61370300
  16649      98.71447200       4.61370300
  16650      98.68089200       4.61370300
  16651      98.64731300       4.61370300
  16652      98.61373400       4.61370300
  16653      98.58015400       4.61370300
  16654      98.54657500       4.61370300
  16655      98.51299500       4.61370300
  16656      98.49089200       4.61370300
  16657      98.46503900       4.61370300
  16658      98.43056800       4.61370300
  16659      98.39609700       4.61370300
  16660      98.36162600       4.61370300
  16661      98.32715600       4.61370300
  16662      98.29268500       4.61370300
  16663      98.26252300       4.61370300
  16664      98.22805200       4.61370300
  16665      98.19358200       4.61370300
  16666      98.15911100       4.61370300
  16667      98.12464000       4.61370300
  16668      98.09016900       4.61370300
  16669      98.05569900       4.61370300
  16670      98.02338200       4.61370300
  16671      97.98891200       4.61370300
  16672      97.95444100       4.61370300
  16673      97.91997000       4.61370300
  16674      97.88550000       4.61370300
  16675      97.85102900       4.61370300
  16676      97.81655800       4.61370300
  16677      97.78208700       4.61370300
  16678      97.74761700       4.61370300
  16679      97.71314600       4.61370300
  16680      97.66475100       4.61370300
  16681      97.59440300       4.61370300
  16682      97.52405400       4.61370300
  16683      97.49680600       4.61370300
  16684      97.49074200       4.61370300
  16685      97.48467700       4.61370300
  16686      97.47861200       4.61370300
  16687      97.47216800       4.61370300
  16688      97.46610400       4.61370300
  16689      97.46003900       4.61370300
  16690      97.45397400       4.61370300
  16691      97.44715100       4.61370300
  16692      97.44108600       4.61370300
  16693      97.43502200       4.61370300
  16694      97.42895700       4.61370300
  16695      97.42289200       4.61370300
  16696      97.41682700       4.61370300
  16697      97.41076300       4.61370300
  16698      97.40469800       4.61370300
  16699      97.39863300       4.61370300
  16700      97.39256800       4.61370300
  16701      97.38650400       4.61370300
  16702      97.38043900       4.61370300
  16703      97.37437400       4.61370300
  16704      97.36830900       4.61370300
  16705      97.36224500       4.61370300
  16706      97.35466400       4.61370300
  16707      97.34859900       4.61370300
  16708      97.34253400       4.61370300
  33417     101.01103700       2.50000000
  33418     101.01820200       2.50000000
  33419     101.03253300       2.50000000
  33420     101.04686300       2.50000000
  33421     101.06119400       2.50000000
  33422     101.07552400       2.50000000
  33423     101.08985500       2.50000000
  33424     101.10418500       2.50000000
  33425     101.11851600       2.50000000
  33426     101.13284600       2.50000000
  33427     101.14717700       2.50000000
  33428     101.16150700       2.50000000
  33429     101.17583800       2.50000000
  33430     101.19016800       2.50000000
  33431     101.20449900       2.50000000
  33432     101.21882900       2.50000000
  33433     101.23316000       2.50000000
  33434     101.24749000       2.50000000
  33435     101.26182100       2.50000000
  33436     101.27615100       2.50000000
  33437     101.29048200       2.50000000
  33438     101.30481200       2.50000000
  33439     101.31914300       2.50000000
  33440     101.33347300       2.50000000
  33441     101.34780400       2.50000000
  33442     101.36213500       2.50000000
  33443     101.37646500       2.50000000
  33444     101.39079600       2.50000000
  33445     101.40512600       2.50000000
  33446     101.41945700       2.50000000
  33447     101.43378700       2.50000000
  33448     101.44811800       2.50000000
  33449     101.46244800       2.50000000
  33450     101.47677900       2.50000000
  33451     101.49110900       2.50000000
  33452     101.50544000       2.50000000
  33453     101.51977000       2.50000000
  33454     101.53051800       2.50000000
  33455     101.54484800       2.50000000
  33456     101.55917900       2.50000000
  33457     101.57351000       2.50000000
  33458     101.58784000       2.50000000
  33459     101.60217100       2.50000000
  33460     101.61650100       2.50000000
  33461     101.63083200       2.50000000
  33462     101.64516200       2.50000000
  33463     101.65770100       2.50000000
  33464     101.67113600       2.50000000
  33465     101.68546700       2.50000000
  33466     101.69979700       2.50000000
  33467     101.71412800       2.50000000
  33468     101.72845800       2.50000000
  33469     101.74278900       2.50000000
  33470     101.75711900       2.50000000
  33471     101.77145000       2.50000000
  33472     101.78578000       2.50000000
  33473     101.79960800       2.50000000
  33474     101.78949800       2.50000000
  33475     101.77783200       2.50000000
  33476     101.76616700       2.50000000
  33477     101.75377200       2.50000000
  33478     101.74210700       2.50000000
  33479     101.73044100       2.50000000
  33480     101.71731800       2.50000000
  33481     101.70565200       2.50000000
  33482     101.69398700       2.50000000
  33483     101.68232100       2.50000000
  33484     101.67065600       2.50000000
  33485     101.65899000       2.50000000
  33486     101.64732500       2.50000000
  33487     101.63565900       2.50000000
  33488     101.62399400       2.50000000
  33489     101.61232800       2.50000000
  33490     101.60066300       2.50000000
  33491     101.58899700       2.50000000
  33492     101.57733200       2.50000000
  33493     101.56566600       2.50000000
  33494     101.55400100       2.50000000
  33495     101.54233500       2.50000000
  33496     101.53066900       2.50000000
  33497     101.51608800       2.50000000
  33498     101.50442200       2.50000000
  33499     101.49275700       2.50000000
  50042      96.45598300       2.50000000
  50043      96.42803300       2.50000000
  50044      96.41124300       2.50000000
  50045      96.37766400       2.50000000
  50046      96.34408400       2.50000000
  50047      96.31050500       2.50000000
  50048      96.27692600       2.50000000
  50049      96.24334600       2.50000000
  50050      96.20976700       2.50000000
  50051      96.17618800       2.50000000
  50052      96.14260800       2.50000000
  50053      96.10902900       2.50000000
  50054      96.07545000       2.50000000
  50055      96.04187000       2.50000000
  50056      96.00829100       2.50000000
  50057      95.97471200       2.50000000
  50058      95.94113200       2.50000000
  50059      95.90755300       2.50000000
  50060      95.87397300       2.50000000
  50061      95.84039400       2.50000000
  50062      95.80681500       2.50000000
  50063      95.77323500       2.50000000
  50064      95.73965600       2.50000000
  50065      95.71447200       2.50000000
  50066      95.68089200       2.50000000
  50067      95.64731300       2.50000000
  50068      95.61373400       2.50000000
  50069      95.58015400       2.50000000
  50070      95.54657500       2.50000000
  50071      95.51299500       2.50000000
  50072      95.49089200       2.50000000
  50073      95.46503900       2.50000000
  50074      95.43056800       2.50000000
  50075      95.39609700       2.50000000
  50076      95.36162600       2.50000000
  50077      95.32715600       2.50000000
  50078      95.29268500       2.50000000
  50079      95.26252300       2.50000000
  50080      95.22805200       2.50000000
  50081      95.19358200       2.50000000
  50082      95.15911100       2.50000000
  50083      95.12464000       2.50000000
  50084      95.09016900       2.50000000
  50085      95.05569900       2.50000000
  50086      95.02338200       2.50000000
  50087      94.98891200       2.50000000
  50088      94.95444100       2.50000000
  50089      94.91997000       2.50000000
  50090      94.88550000       2.50000000
  50091      94.85102900       2.50000000
  50092      94.81655800       2.50000000
  50093      94.78208700       2.50000000
  50094      94.74761700       2.50000000
  50095      94.71314600       2.50000000
  50096      94.66475100       2.50000000
  50097      94.59440300       2.50000000
  50098      94.52405400       2.50000000
  50099      94.49680600       2.50000000
  50100      94.49074200       2.50000000
  50101      94.48467700       2.50000000
  50102      94.47861200       2.50000000
  50103      94.47216800       2.50000000
  50104      94.46610400       2.50000000
  50105      94.46003900       2.50000000
  50106      94.45397400       2.50000000
  50107      94.44715100       2.50000000
  50108      94.44108600       2.50000000
  50109      94.43502200       2.50000000
  50110      94.42895700       2.50000000
  50111      94.42289200       2.50000000
  50112      94.41682700       2.50000000
  50113      94.41076300       2.50000000
  50114      94.40469800       2.50000000
  50115      94.39863300       2.50000000
  50116      94.39256800       2.50000000
  50117      94.38650400       2.50000000
  50118      94.38043900       2.50000000
  50119      94.37437400       2.50000000
  50120      94.36830900       2.50000000
  50121      94.36224500       2.50000000
  50122      94.35466400       2.50000000
  50123      94.34859900       2.50000000
  50124      94.34253400       2.50000000
END PERIOD  1

