# File generated by Flopy version 3.3.3 on 05/29/2021 at 18:28:03.
BEGIN OPTIONS
  LIST  sgn.lst
  PRINT_FLOWS
  SAVE_FLOWS
  NEWTON
END OPTIONS

BEGIN PACKAGES
  disu6  SGN.dis
  ic6  SGN.ic6
  oc6  SGN.oc6
  npf6  SGN.npf
  riv6  SGN.riv  riv-1
  ghb6  SGN.ghb  ghb-1
  wel6  SGN.wel  wel-1
  rch6  SGN.rch  rch-1
END PACKAGES

