# File generated by Flopy version 3.3.5 on 09/19/2021 at 12:02:08.
BEGIN options
  SAVE_FLOWS
END options

BEGIN packages
  DISV6  gwt-sgn.dis  disv
  IC6  gwt-sgn.ic  ic
  ADV6  gwt-sgn.adv  adv
  DSP6  gwt-sgn.dsp  dsp-1
  MST6  gwt-sgn.mst  mst-1
  SSM6  gwt-sgn.ssm  ssm
  OC6  gwt-sgn.oc  oc
  CNC6  gwt-sgn.cnc  cnc
  OBS6  gwt-sgn.obs  obs_0
END packages

