# File generated by Flopy version 3.3.5 on 11/01/2021 at 14:40:41.
BEGIN options
  BUDGET  FILEOUT  gwt-sgn.cbc
  CONCENTRATION  FILEOUT  gwt-sgn.ucn
  CONCENTRATION  PRINT_FORMAT  COLUMNS  10  WIDTH  15  DIGITS  6  GENERAL
END options

BEGIN period  1
  SAVE  CONCENTRATION  LAST
  SAVE  BUDGET  LAST
  PRINT  CONCENTRATION  LAST
  PRINT  BUDGET  LAST
END period  1

