# File generated by Flopy version 3.3.3 on 07/03/2021 at 16:26:53.
BEGIN options
  SCHEME  upstream
END options

