# File generated by Flopy version 3.3.5 on 09/19/2021 at 12:02:10.
BEGIN options
  BUDGET  FILEOUT  gwt-sgn.cbc
  CONCENTRATION  FILEOUT  gwt-sgn.ucn
  CONCENTRATION  PRINT_FORMAT  COLUMNS  10  WIDTH  15  DIGITS  6  GENERAL
END options

BEGIN period  1
  SAVE  CONCENTRATION  LAST
  SAVE  BUDGET  LAST
  PRINT  CONCENTRATION  LAST
  PRINT  BUDGET  LAST
END period  1

