# File generated by Flopy version 3.3.5 on 09/19/2021 at 12:02:10.
BEGIN options
END options

BEGIN griddata
  diffc
    CONSTANT  1.02000000E-09
  alh
    CONSTANT      30.00000000
  ath1
    CONSTANT       3.00000000
  atv
    CONSTANT       3.00000000
END griddata

