# File generated by Flopy version 3.3.5 on 09/19/2021 at 12:02:10.
BEGIN options
END options

BEGIN griddata
  porosity
    CONSTANT       0.20000000
END griddata

