# File generated by Flopy version 3.3.5 on 11/01/2021 at 14:40:41.
BEGIN options
  PRINT_FLOWS
END options

BEGIN sources
  
END sources

