# File generated by Flopy version 3.3.5 on 11/01/2021 at 14:40:41.
BEGIN griddata
  strt
    CONSTANT       0.00000000
END griddata

