# File generated by Flopy version 3.3.3 on 07/03/2021 at 16:26:47.
BEGIN options
  CONTINUE
END options

BEGIN timing
  TDIS6  sim.tdis
END timing

BEGIN models
  gwf6  sgn.nam  sgn
  gwt6  gwt-sgn.nam  gwt-sgn
END models

BEGIN exchanges
  GWF6-GWT6  sgn.gwfgwt  sgn  gwt-sgn
END exchanges

BEGIN solutiongroup  1
  ims6  sim.ims  sgn
  ims6  gwt-sgn.ims  gwt-sgn
END solutiongroup  1

