# File generated by Flopy version 3.3.5 on 09/19/2021 at 12:02:06.
BEGIN options
  DIGITS  9
END options

BEGIN continuous  FILEOUT  rch.csv
  rch  rch  rch
END continuous  FILEOUT  rch.csv

