# File generated by Flopy version 3.3.3 on 07/03/2021 at 16:26:50.
BEGIN options
  BOUNDNAMES
  OBS6  FILEIN  sgn.drn.obs
END options

BEGIN dimensions
  MAXBOUND  19131
END dimensions

BEGIN period  1
  1 1     113.17749023   10000.00000000  surf-drn
  1 2     112.95309448   10000.00000000  surf-drn
  1 3     112.82367706   10000.00000000  surf-drn
  1 4     113.81641388   10000.00000000  surf-drn
  1 5     113.89986420   10000.00000000  surf-drn
  1 6     113.73541260   10000.00000000  surf-drn
  1 7     113.58529663   10000.00000000  surf-drn
  1 8     112.33863068   10000.00000000  surf-drn
  1 9     112.98705292   10000.00000000  surf-drn
  1 10     112.87075043   10000.00000000  surf-drn
  1 11     113.22854614   10000.00000000  surf-drn
  1 12     112.41183472   10000.00000000  surf-drn
  1 13     112.52619171   10000.00000000  surf-drn
  1 14     112.04480743   10000.00000000  surf-drn
  1 15     112.00542450   10000.00000000  surf-drn
  1 16     112.54753876   10000.00000000  surf-drn
  1 17     112.71735382   10000.00000000  surf-drn
  1 18     112.76519775   10000.00000000  surf-drn
  1 19     112.86130524   10000.00000000  surf-drn
  1 20     112.88484192   10000.00000000  surf-drn
  1 21     113.02445984   10000.00000000  surf-drn
  1 22     113.01183319   10000.00000000  surf-drn
  1 23     112.95915985   10000.00000000  surf-drn
  1 24     112.92285919   10000.00000000  surf-drn
  1 25     112.26748657   10000.00000000  surf-drn
  1 26     112.31240845   10000.00000000  surf-drn
  1 27     111.81162262   10000.00000000  surf-drn
  1 28     111.70061493   10000.00000000  surf-drn
  1 29     111.67498779   10000.00000000  surf-drn
  1 30     111.65473175   10000.00000000  surf-drn
  1 31     111.64402771   10000.00000000  surf-drn
  1 32     111.66426849   10000.00000000  surf-drn
  1 33     111.58960724   10000.00000000  surf-drn
  1 34     111.61719513   10000.00000000  surf-drn
  1 35     110.70307922   10000.00000000  surf-drn
  1 36     110.46750641   10000.00000000  surf-drn
  1 37     109.92114258   10000.00000000  surf-drn
  1 38     114.83789062   10000.00000000  surf-drn
  1 39     111.58669281   10000.00000000  surf-drn
  1 40     110.36612701   10000.00000000  surf-drn
  1 41     110.19659424   10000.00000000  surf-drn
  1 42     110.12001801   10000.00000000  surf-drn
  1 43     110.08786011   10000.00000000  surf-drn
  1 44     110.09187317   10000.00000000  surf-drn
  1 45     110.00178528   10000.00000000  surf-drn
  1 46     109.82427979   10000.00000000  surf-drn
  1 47     109.72833252   10000.00000000  surf-drn
  1 48     109.99532318   10000.00000000  surf-drn
  1 49     109.92133331   10000.00000000  surf-drn
  1 50     109.90258026   10000.00000000  surf-drn
  1 51     109.63471222   10000.00000000  surf-drn
  1 52     109.54837799   10000.00000000  surf-drn
  1 53     109.67291260   10000.00000000  surf-drn
  1 54     109.83979034   10000.00000000  surf-drn
  1 55     110.13896942   10000.00000000  surf-drn
  1 56     111.51633453   10000.00000000  surf-drn
  1 57     110.93206024   10000.00000000  surf-drn
  1 58     109.80580139   10000.00000000  surf-drn
  1 59     113.85849762   10000.00000000  surf-drn
  1 60     109.58386993   10000.00000000  surf-drn
  1 61     109.68040466   10000.00000000  surf-drn
  1 62     111.10626221   10000.00000000  surf-drn
  1 63     110.50037384   10000.00000000  surf-drn
  1 64     109.51778412   10000.00000000  surf-drn
  1 65     110.63022614   10000.00000000  surf-drn
  1 66     109.68912506   10000.00000000  surf-drn
  1 67     109.80369568   10000.00000000  surf-drn
  1 68     109.58732605   10000.00000000  surf-drn
  1 69     109.37113190   10000.00000000  surf-drn
  1 70     109.06087494   10000.00000000  surf-drn
  1 71     109.02361298   10000.00000000  surf-drn
  1 72     108.70903778   10000.00000000  surf-drn
  1 73     108.55424500   10000.00000000  surf-drn
  1 74     109.01789093   10000.00000000  surf-drn
  1 75     108.66582489   10000.00000000  surf-drn
  1 76     108.38236237   10000.00000000  surf-drn
  1 77     108.23851776   10000.00000000  surf-drn
  1 78     108.15754700   10000.00000000  surf-drn
  1 79     108.23825073   10000.00000000  surf-drn
  1 80     108.19750214   10000.00000000  surf-drn
  1 81     108.06193542   10000.00000000  surf-drn
  1 82     108.11563110   10000.00000000  surf-drn
  1 83     108.16135406   10000.00000000  surf-drn
  1 84     108.16628265   10000.00000000  surf-drn
  1 85     108.51976013   10000.00000000  surf-drn
  1 86     108.64288330   10000.00000000  surf-drn
  1 87     112.86772919   10000.00000000  surf-drn
  1 88     113.75123596   10000.00000000  surf-drn
  1 89     113.36373138   10000.00000000  surf-drn
  1 90     113.84557343   10000.00000000  surf-drn
  1 91     113.67471313   10000.00000000  surf-drn
  1 92     113.62448883   10000.00000000  surf-drn
  1 93     113.76105499   10000.00000000  surf-drn
  1 94     112.64441681   10000.00000000  surf-drn
  1 95     113.08890533   10000.00000000  surf-drn
  1 96     112.76814270   10000.00000000  surf-drn
  1 97     112.62390900   10000.00000000  surf-drn
  1 98     112.46112061   10000.00000000  surf-drn
  1 99     112.27534485   10000.00000000  surf-drn
  1 100     112.21858978   10000.00000000  surf-drn
  1 101     112.12133789   10000.00000000  surf-drn
  1 102     112.35424042   10000.00000000  surf-drn
  1 103     112.62730408   10000.00000000  surf-drn
  1 104     112.83129883   10000.00000000  surf-drn
  1 105     112.82238007   10000.00000000  surf-drn
  1 106     112.98858643   10000.00000000  surf-drn
  1 107     113.01763916   10000.00000000  surf-drn
  1 108     113.03221893   10000.00000000  surf-drn
  1 109     113.03715515   10000.00000000  surf-drn
  1 110     112.97153473   10000.00000000  surf-drn
  1 111     112.50856781   10000.00000000  surf-drn
  1 112     112.41146088   10000.00000000  surf-drn
  1 113     111.80456543   10000.00000000  surf-drn
  1 114     111.72223663   10000.00000000  surf-drn
  1 115     111.58058929   10000.00000000  surf-drn
  1 116     111.55562592   10000.00000000  surf-drn
  1 117     111.48908234   10000.00000000  surf-drn
  1 118     111.63770294   10000.00000000  surf-drn
  1 119     111.55896759   10000.00000000  surf-drn
  1 120     111.41519165   10000.00000000  surf-drn
  1 121     110.89113617   10000.00000000  surf-drn
  1 122     110.93459320   10000.00000000  surf-drn
  1 123     110.89981079   10000.00000000  surf-drn
  1 124     114.93793488   10000.00000000  surf-drn
  1 125     110.24505615   10000.00000000  surf-drn
  1 126     110.49478149   10000.00000000  surf-drn
  1 127     110.36381531   10000.00000000  surf-drn
  1 128     109.98785400   10000.00000000  surf-drn
  1 129     109.75858307   10000.00000000  surf-drn
  1 130     109.91063690   10000.00000000  surf-drn
  1 131     110.20063019   10000.00000000  surf-drn
  1 132     110.14413452   10000.00000000  surf-drn
  1 133     109.21547699   10000.00000000  surf-drn
  1 134     109.82954407   10000.00000000  surf-drn
  1 135     109.93922424   10000.00000000  surf-drn
  1 136     109.90866089   10000.00000000  surf-drn
  1 137     109.37915039   10000.00000000  surf-drn
  1 138     109.39761353   10000.00000000  surf-drn
  1 139     109.50833130   10000.00000000  surf-drn
  1 140     109.73441315   10000.00000000  surf-drn
  1 141     110.14263916   10000.00000000  surf-drn
  1 142     110.08574677   10000.00000000  surf-drn
  1 143     111.86508179   10000.00000000  surf-drn
  1 144     113.38272095   10000.00000000  surf-drn
  1 145     113.74883270   10000.00000000  surf-drn
  1 146     108.55090332   10000.00000000  surf-drn
  1 147     109.26151276   10000.00000000  surf-drn
  1 148     114.54342651   10000.00000000  surf-drn
  1 149     110.79950714   10000.00000000  surf-drn
  1 150     109.25864410   10000.00000000  surf-drn
  1 151     109.87245178   10000.00000000  surf-drn
  1 152     109.19939423   10000.00000000  surf-drn
  1 153     110.48084259   10000.00000000  surf-drn
  1 154     110.01251984   10000.00000000  surf-drn
  1 155     109.45594025   10000.00000000  surf-drn
  1 156     109.56661224   10000.00000000  surf-drn
  1 157     110.10760498   10000.00000000  surf-drn
  1 158     109.38434601   10000.00000000  surf-drn
  1 159     109.10599518   10000.00000000  surf-drn
  1 160     108.21170044   10000.00000000  surf-drn
  1 161     108.11619568   10000.00000000  surf-drn
  1 162     108.12010193   10000.00000000  surf-drn
  1 163     108.03664398   10000.00000000  surf-drn
  1 164     108.03952026   10000.00000000  surf-drn
  1 165     108.14024353   10000.00000000  surf-drn
  1 166     108.05098724   10000.00000000  surf-drn
  1 167     107.91324615   10000.00000000  surf-drn
  1 168     107.96910095   10000.00000000  surf-drn
  1 169     108.04788208   10000.00000000  surf-drn
  1 170     108.21245575   10000.00000000  surf-drn
  1 171     108.65400696   10000.00000000  surf-drn
  1 172     108.45948792   10000.00000000  surf-drn
  1 173     113.55124664   10000.00000000  surf-drn
  1 174     113.65458679   10000.00000000  surf-drn
  1 175     113.75989532   10000.00000000  surf-drn
  1 176     113.76332855   10000.00000000  surf-drn
  1 177     113.58054352   10000.00000000  surf-drn
  1 178     113.38104248   10000.00000000  surf-drn
  1 179     113.35800934   10000.00000000  surf-drn
  1 180     113.02468872   10000.00000000  surf-drn
  1 181     113.05722046   10000.00000000  surf-drn
  1 182     112.53987885   10000.00000000  surf-drn
  1 183     112.44559479   10000.00000000  surf-drn
  1 184     112.34326935   10000.00000000  surf-drn
  1 185     112.28600311   10000.00000000  surf-drn
  1 186     112.32721710   10000.00000000  surf-drn
  1 187     112.15361786   10000.00000000  surf-drn
  1 188     112.05086517   10000.00000000  surf-drn
  1 189     112.13856506   10000.00000000  surf-drn
  1 190     112.22586060   10000.00000000  surf-drn
  1 191     112.23744965   10000.00000000  surf-drn
  1 192     112.39048004   10000.00000000  surf-drn
  1 193     112.39324188   10000.00000000  surf-drn
  1 194     112.61567688   10000.00000000  surf-drn
  1 195     112.74541473   10000.00000000  surf-drn
  1 196     112.86875916   10000.00000000  surf-drn
  1 197     112.78481293   10000.00000000  surf-drn
  1 198     112.14225769   10000.00000000  surf-drn
  1 199     111.76827240   10000.00000000  surf-drn
  1 200     111.75926971   10000.00000000  surf-drn
  1 201     111.59125519   10000.00000000  surf-drn
  1 202     111.66602325   10000.00000000  surf-drn
  1 203     111.63783264   10000.00000000  surf-drn
  1 204     111.73177338   10000.00000000  surf-drn
  1 205     111.78230286   10000.00000000  surf-drn
  1 206     111.29723358   10000.00000000  surf-drn
  1 207     109.98556519   10000.00000000  surf-drn
  1 208     110.69428253   10000.00000000  surf-drn
  1 209     113.23101044   10000.00000000  surf-drn
  1 210     113.32466125   10000.00000000  surf-drn
  1 211     110.32466888   10000.00000000  surf-drn
  1 212     110.69416809   10000.00000000  surf-drn
  1 213     110.30032349   10000.00000000  surf-drn
  1 214     110.02440643   10000.00000000  surf-drn
  1 215     109.87358856   10000.00000000  surf-drn
  1 216     109.54148865   10000.00000000  surf-drn
  1 217     109.99928284   10000.00000000  surf-drn
  1 218     109.94213867   10000.00000000  surf-drn
  1 219     109.85388947   10000.00000000  surf-drn
  1 220     109.35368347   10000.00000000  surf-drn
  1 221     109.70443726   10000.00000000  surf-drn
  1 222     109.81585693   10000.00000000  surf-drn
  1 223     109.52194214   10000.00000000  surf-drn
  1 224     109.33589172   10000.00000000  surf-drn
  1 225     109.47649384   10000.00000000  surf-drn
  1 226     109.78575134   10000.00000000  surf-drn
  1 227     109.72718048   10000.00000000  surf-drn
  1 228     109.79212189   10000.00000000  surf-drn
  1 229     109.94709015   10000.00000000  surf-drn
  1 230     113.80408478   10000.00000000  surf-drn
  1 231     113.48365784   10000.00000000  surf-drn
  1 232     110.09298706   10000.00000000  surf-drn
  1 233     108.65929413   10000.00000000  surf-drn
  1 234     113.10836029   10000.00000000  surf-drn
  1 235     109.35342407   10000.00000000  surf-drn
  1 236     109.31263733   10000.00000000  surf-drn
  1 237     108.96676636   10000.00000000  surf-drn
  1 238     109.17833710   10000.00000000  surf-drn
  1 239     109.86607361   10000.00000000  surf-drn
  1 240     109.18494415   10000.00000000  surf-drn
  1 241     108.20578766   10000.00000000  surf-drn
  1 242     108.00930023   10000.00000000  surf-drn
  1 243     108.62841034   10000.00000000  surf-drn
  1 244     109.53035736   10000.00000000  surf-drn
  1 245     109.69420624   10000.00000000  surf-drn
  1 246     109.52670288   10000.00000000  surf-drn
  1 247     109.42961884   10000.00000000  surf-drn
  1 248     109.03656006   10000.00000000  surf-drn
  1 249     108.66340637   10000.00000000  surf-drn
  1 250     108.23986816   10000.00000000  surf-drn
  1 251     108.09737396   10000.00000000  surf-drn
  1 252     107.82213593   10000.00000000  surf-drn
  1 253     107.75807953   10000.00000000  surf-drn
  1 254     107.82542419   10000.00000000  surf-drn
  1 255     108.06343842   10000.00000000  surf-drn
  1 256     108.19338226   10000.00000000  surf-drn
  1 257     108.52420044   10000.00000000  surf-drn
  1 258     108.03451538   10000.00000000  surf-drn
  1 259     113.24888611   10000.00000000  surf-drn
  1 260     113.43673706   10000.00000000  surf-drn
  1 261     113.56020355   10000.00000000  surf-drn
  1 262     113.07359314   10000.00000000  surf-drn
  1 263     113.35705566   10000.00000000  surf-drn
  1 264     113.27064514   10000.00000000  surf-drn
  1 265     112.84558105   10000.00000000  surf-drn
  1 266     112.81086731   10000.00000000  surf-drn
  1 267     112.43362427   10000.00000000  surf-drn
  1 268     112.57622528   10000.00000000  surf-drn
  1 269     112.19789886   10000.00000000  surf-drn
  1 270     112.07558441   10000.00000000  surf-drn
  1 271     112.04885101   10000.00000000  surf-drn
  1 272     111.97309113   10000.00000000  surf-drn
  1 273     111.76210785   10000.00000000  surf-drn
  1 274     111.74889374   10000.00000000  surf-drn
  1 275     111.98258972   10000.00000000  surf-drn
  1 276     112.15656281   10000.00000000  surf-drn
  1 277     112.05263519   10000.00000000  surf-drn
  1 278     111.74753571   10000.00000000  surf-drn
  1 279     111.54879761   10000.00000000  surf-drn
  1 280     111.69737244   10000.00000000  surf-drn
  1 281     111.84717560   10000.00000000  surf-drn
  1 282     112.14173889   10000.00000000  surf-drn
  1 283     112.29868317   10000.00000000  surf-drn
  1 284     111.91033173   10000.00000000  surf-drn
  1 285     111.71306610   10000.00000000  surf-drn
  1 286     111.72623444   10000.00000000  surf-drn
  1 287     111.75312042   10000.00000000  surf-drn
  1 288     111.69927216   10000.00000000  surf-drn
  1 289     111.70661926   10000.00000000  surf-drn
  1 290     111.45372009   10000.00000000  surf-drn
  1 291     111.31195068   10000.00000000  surf-drn
  1 292     110.29170227   10000.00000000  surf-drn
  1 293     109.56490326   10000.00000000  surf-drn
  1 294     110.60198975   10000.00000000  surf-drn
  1 295     115.07437134   10000.00000000  surf-drn
  1 296     111.57164001   10000.00000000  surf-drn
  1 297     110.18286133   10000.00000000  surf-drn
  1 298     110.57051849   10000.00000000  surf-drn
  1 299     109.73616791   10000.00000000  surf-drn
  1 300     109.75140381   10000.00000000  surf-drn
  1 301     109.83339691   10000.00000000  surf-drn
  1 302     109.98841858   10000.00000000  surf-drn
  1 303     109.48725128   10000.00000000  surf-drn
  1 304     109.17713165   10000.00000000  surf-drn
  1 305     110.04549408   10000.00000000  surf-drn
  1 306     109.33135986   10000.00000000  surf-drn
  1 307     108.64249420   10000.00000000  surf-drn
  1 308     109.69343567   10000.00000000  surf-drn
  1 309     109.55531311   10000.00000000  surf-drn
  1 310     109.50962830   10000.00000000  surf-drn
  1 311     109.83657837   10000.00000000  surf-drn
  1 312     109.94543457   10000.00000000  surf-drn
  1 313     109.89311218   10000.00000000  surf-drn
  1 314     109.78589630   10000.00000000  surf-drn
  1 315     109.80637360   10000.00000000  surf-drn
  1 316     112.33525085   10000.00000000  surf-drn
  1 317     114.72566223   10000.00000000  surf-drn
  1 318     114.97753906   10000.00000000  surf-drn
  1 319     110.10721588   10000.00000000  surf-drn
  1 320     110.69548035   10000.00000000  surf-drn
  1 321     108.84175873   10000.00000000  surf-drn
  1 322     108.79454041   10000.00000000  surf-drn
  1 323     108.58452606   10000.00000000  surf-drn
  1 324     108.34969330   10000.00000000  surf-drn
  1 325     108.91459656   10000.00000000  surf-drn
  1 326     108.66559601   10000.00000000  surf-drn
  1 327     107.62699890   10000.00000000  surf-drn
  1 328     107.90634155   10000.00000000  surf-drn
  1 329     108.18991852   10000.00000000  surf-drn
  1 330     108.20600891   10000.00000000  surf-drn
  1 331     108.19895935   10000.00000000  surf-drn
  1 332     108.11338043   10000.00000000  surf-drn
  1 333     109.02850342   10000.00000000  surf-drn
  1 334     108.83203888   10000.00000000  surf-drn
  1 335     109.14469910   10000.00000000  surf-drn
  1 336     109.38102722   10000.00000000  surf-drn
  1 337     109.63819885   10000.00000000  surf-drn
  1 338     109.07625580   10000.00000000  surf-drn
  1 339     108.70189667   10000.00000000  surf-drn
  1 340     108.51666260   10000.00000000  surf-drn
  1 341     108.94650269   10000.00000000  surf-drn
  1 342     108.86714935   10000.00000000  surf-drn
  1 343     108.44579315   10000.00000000  surf-drn
  1 344     107.70190430   10000.00000000  surf-drn
  1 345     113.23724365   10000.00000000  surf-drn
  1 346     113.18777466   10000.00000000  surf-drn
  1 347     113.29267883   10000.00000000  surf-drn
  1 348     113.06670380   10000.00000000  surf-drn
  1 349     113.08010864   10000.00000000  surf-drn
  1 350     113.08293152   10000.00000000  surf-drn
  1 351     112.80177307   10000.00000000  surf-drn
  1 352     112.62049103   10000.00000000  surf-drn
  1 353     112.14425659   10000.00000000  surf-drn
  1 354     112.47409821   10000.00000000  surf-drn
  1 355     112.09754944   10000.00000000  surf-drn
  1 356     112.02002716   10000.00000000  surf-drn
  1 357     112.02175140   10000.00000000  surf-drn
  1 358     111.53277588   10000.00000000  surf-drn
  1 359     111.07797241   10000.00000000  surf-drn
  1 360     111.80329132   10000.00000000  surf-drn
  1 361     112.13906097   10000.00000000  surf-drn
  1 362     112.18231201   10000.00000000  surf-drn
  1 363     111.60302734   10000.00000000  surf-drn
  1 364     111.47989655   10000.00000000  surf-drn
  1 365     111.29356384   10000.00000000  surf-drn
  1 366     111.26622009   10000.00000000  surf-drn
  1 367     111.32395172   10000.00000000  surf-drn
  1 368     111.38620758   10000.00000000  surf-drn
  1 369     111.53295898   10000.00000000  surf-drn
  1 370     111.36156464   10000.00000000  surf-drn
  1 371     111.30678558   10000.00000000  surf-drn
  1 372     111.33995056   10000.00000000  surf-drn
  1 373     111.30284882   10000.00000000  surf-drn
  1 374     111.32832336   10000.00000000  surf-drn
  1 375     111.49759674   10000.00000000  surf-drn
  1 376     111.01292419   10000.00000000  surf-drn
  1 377     110.89508820   10000.00000000  surf-drn
  1 378     110.19754028   10000.00000000  surf-drn
  1 379     109.37567139   10000.00000000  surf-drn
  1 380     111.84665680   10000.00000000  surf-drn
  1 381     115.53398132   10000.00000000  surf-drn
  1 382     110.33621979   10000.00000000  surf-drn
  1 383     110.00534821   10000.00000000  surf-drn
  1 384     110.09045410   10000.00000000  surf-drn
  1 385     110.03938293   10000.00000000  surf-drn
  1 386     109.77993011   10000.00000000  surf-drn
  1 387     110.03106689   10000.00000000  surf-drn
  1 388     110.55770874   10000.00000000  surf-drn
  1 389     109.53399658   10000.00000000  surf-drn
  1 390     109.28437805   10000.00000000  surf-drn
  1 391     109.90375519   10000.00000000  surf-drn
  1 392     110.00158691   10000.00000000  surf-drn
  1 393     109.61734772   10000.00000000  surf-drn
  1 394     109.74569702   10000.00000000  surf-drn
  1 395     109.70992279   10000.00000000  surf-drn
  1 396     109.70554352   10000.00000000  surf-drn
  1 397     109.84321594   10000.00000000  surf-drn
  1 398     110.02528381   10000.00000000  surf-drn
  1 399     110.16960907   10000.00000000  surf-drn
  1 400     110.03752899   10000.00000000  surf-drn
  1 401     109.84194183   10000.00000000  surf-drn
  1 402     111.56792450   10000.00000000  surf-drn
  1 403     114.71854401   10000.00000000  surf-drn
  1 404     112.77394104   10000.00000000  surf-drn
  1 405     111.79933167   10000.00000000  surf-drn
  1 406     109.14125061   10000.00000000  surf-drn
  1 407     108.21694946   10000.00000000  surf-drn
  1 408     108.22107697   10000.00000000  surf-drn
  1 409     107.99197388   10000.00000000  surf-drn
  1 410     108.16680908   10000.00000000  surf-drn
  1 411     108.23983002   10000.00000000  surf-drn
  1 412     108.80551910   10000.00000000  surf-drn
  1 413     108.31510162   10000.00000000  surf-drn
  1 414     108.75917053   10000.00000000  surf-drn
  1 415     108.77287292   10000.00000000  surf-drn
  1 416     107.51795197   10000.00000000  surf-drn
  1 417     107.91798401   10000.00000000  surf-drn
  1 418     108.02457428   10000.00000000  surf-drn
  1 419     108.16835022   10000.00000000  surf-drn
  1 420     108.19667816   10000.00000000  surf-drn
  1 421     108.27706146   10000.00000000  surf-drn
  1 422     108.51587677   10000.00000000  surf-drn
  1 423     108.51985931   10000.00000000  surf-drn
  1 424     108.55502319   10000.00000000  surf-drn
  1 425     108.28272247   10000.00000000  surf-drn
  1 426     108.27032471   10000.00000000  surf-drn
  1 427     108.59642029   10000.00000000  surf-drn
  1 428     109.03387451   10000.00000000  surf-drn
  1 429     109.42184448   10000.00000000  surf-drn
  1 430     109.88764191   10000.00000000  surf-drn
  1 431     109.76799011   10000.00000000  surf-drn
  1 432     108.98850250   10000.00000000  surf-drn
  1 433     108.29524994   10000.00000000  surf-drn
  1 434     112.71286774   10000.00000000  surf-drn
  1 435     112.24533081   10000.00000000  surf-drn
  1 436     112.93266296   10000.00000000  surf-drn
  1 437     112.96328735   10000.00000000  surf-drn
  1 438     112.87787628   10000.00000000  surf-drn
  1 439     112.86940002   10000.00000000  surf-drn
  1 440     112.57276154   10000.00000000  surf-drn
  1 441     112.29110718   10000.00000000  surf-drn
  1 442     112.14946747   10000.00000000  surf-drn
  1 443     112.07682800   10000.00000000  surf-drn
  1 444     111.98537445   10000.00000000  surf-drn
  1 445     111.84916687   10000.00000000  surf-drn
  1 446     111.60560608   10000.00000000  surf-drn
  1 447     111.37613678   10000.00000000  surf-drn
  1 448     111.36024475   10000.00000000  surf-drn
  1 449     111.42509460   10000.00000000  surf-drn
  1 450     111.68093109   10000.00000000  surf-drn
  1 451     111.83297729   10000.00000000  surf-drn
  1 452     111.63464355   10000.00000000  surf-drn
  1 453     111.34439850   10000.00000000  surf-drn
  1 454     111.18422699   10000.00000000  surf-drn
  1 455     111.18679810   10000.00000000  surf-drn
  1 456     111.16905212   10000.00000000  surf-drn
  1 457     111.12106323   10000.00000000  surf-drn
  1 458     111.39312744   10000.00000000  surf-drn
  1 459     110.60945892   10000.00000000  surf-drn
  1 460     110.93037415   10000.00000000  surf-drn
  1 461     110.68074036   10000.00000000  surf-drn
  1 462     110.39209747   10000.00000000  surf-drn
  1 463     110.45147705   10000.00000000  surf-drn
  1 464     110.15505981   10000.00000000  surf-drn
  1 465     109.86908722   10000.00000000  surf-drn
  1 466     109.64370728   10000.00000000  surf-drn
  1 467     109.69441223   10000.00000000  surf-drn
  1 468     109.58316040   10000.00000000  surf-drn
  1 469     113.79504395   10000.00000000  surf-drn
  1 470     113.52803040   10000.00000000  surf-drn
  1 471     109.55811310   10000.00000000  surf-drn
  1 472     109.95565796   10000.00000000  surf-drn
  1 473     110.10999298   10000.00000000  surf-drn
  1 474     109.85063171   10000.00000000  surf-drn
  1 475     109.86839294   10000.00000000  surf-drn
  1 476     110.65381622   10000.00000000  surf-drn
  1 477     110.60076141   10000.00000000  surf-drn
  1 478     109.94715881   10000.00000000  surf-drn
  1 479     109.74642181   10000.00000000  surf-drn
  1 480     109.62200928   10000.00000000  surf-drn
  1 481     109.81545258   10000.00000000  surf-drn
  1 482     109.90173340   10000.00000000  surf-drn
  1 483     109.36975861   10000.00000000  surf-drn
  1 484     109.28643036   10000.00000000  surf-drn
  1 485     109.89261627   10000.00000000  surf-drn
  1 486     109.80332184   10000.00000000  surf-drn
  1 487     110.14326477   10000.00000000  surf-drn
  1 488     110.15024567   10000.00000000  surf-drn
  1 489     110.04319000   10000.00000000  surf-drn
  1 490     110.08430481   10000.00000000  surf-drn
  1 491     111.08246613   10000.00000000  surf-drn
  1 492     113.63659668   10000.00000000  surf-drn
  1 493     112.02005768   10000.00000000  surf-drn
  1 494     111.58998871   10000.00000000  surf-drn
  1 495     107.88054657   10000.00000000  surf-drn
  1 496     108.02822113   10000.00000000  surf-drn
  1 497     108.23532104   10000.00000000  surf-drn
  1 498     108.71598053   10000.00000000  surf-drn
  1 499     108.33774567   10000.00000000  surf-drn
  1 500     108.62601471   10000.00000000  surf-drn
  1 501     108.88442230   10000.00000000  surf-drn
  1 502     107.96289825   10000.00000000  surf-drn
  1 503     108.14229584   10000.00000000  surf-drn
  1 504     108.00990295   10000.00000000  surf-drn
  1 505     107.97369385   10000.00000000  surf-drn
  1 506     107.89397430   10000.00000000  surf-drn
  1 507     107.88607788   10000.00000000  surf-drn
  1 508     107.81518555   10000.00000000  surf-drn
  1 509     108.47574615   10000.00000000  surf-drn
  1 510     108.74286652   10000.00000000  surf-drn
  1 511     108.61135864   10000.00000000  surf-drn
  1 512     108.05077362   10000.00000000  surf-drn
  1 513     108.13236237   10000.00000000  surf-drn
  1 514     107.99352264   10000.00000000  surf-drn
  1 515     107.59834290   10000.00000000  surf-drn
  1 516     108.06719971   10000.00000000  surf-drn
  1 517     108.40506744   10000.00000000  surf-drn
  1 518     108.92712402   10000.00000000  surf-drn
  1 519     109.17610168   10000.00000000  surf-drn
  1 520     112.80918121   10000.00000000  surf-drn
  1 521     112.15606689   10000.00000000  surf-drn
  1 522     112.63182831   10000.00000000  surf-drn
  1 523     112.63693237   10000.00000000  surf-drn
  1 524     112.54126740   10000.00000000  surf-drn
  1 525     112.54239655   10000.00000000  surf-drn
  1 526     112.34053802   10000.00000000  surf-drn
  1 527     112.12470245   10000.00000000  surf-drn
  1 528     111.89453888   10000.00000000  surf-drn
  1 529     111.96591949   10000.00000000  surf-drn
  1 530     111.80056763   10000.00000000  surf-drn
  1 531     111.58718872   10000.00000000  surf-drn
  1 532     111.31970215   10000.00000000  surf-drn
  1 533     111.12857819   10000.00000000  surf-drn
  1 534     111.05005646   10000.00000000  surf-drn
  1 535     111.01497650   10000.00000000  surf-drn
  1 536     111.01429749   10000.00000000  surf-drn
  1 537     110.61468506   10000.00000000  surf-drn
  1 538     110.86261749   10000.00000000  surf-drn
  1 539     111.09426117   10000.00000000  surf-drn
  1 540     111.14266205   10000.00000000  surf-drn
  1 541     111.10704803   10000.00000000  surf-drn
  1 542     111.04554749   10000.00000000  surf-drn
  1 543     110.47505188   10000.00000000  surf-drn
  1 544     110.37363434   10000.00000000  surf-drn
  1 545     110.32237244   10000.00000000  surf-drn
  1 546     110.44107056   10000.00000000  surf-drn
  1 547     110.39389038   10000.00000000  surf-drn
  1 548     110.27524567   10000.00000000  surf-drn
  1 549     110.40737915   10000.00000000  surf-drn
  1 550     110.08418274   10000.00000000  surf-drn
  1 551     109.39033508   10000.00000000  surf-drn
  1 552     108.27703857   10000.00000000  surf-drn
  1 553     108.42591095   10000.00000000  surf-drn
  1 554     110.29011536   10000.00000000  surf-drn
  1 555     114.24119568   10000.00000000  surf-drn
  1 556     111.58868408   10000.00000000  surf-drn
  1 557     109.56320953   10000.00000000  surf-drn
  1 558     109.64694214   10000.00000000  surf-drn
  1 559     109.63343048   10000.00000000  surf-drn
  1 560     109.33905792   10000.00000000  surf-drn
  1 561     109.30200958   10000.00000000  surf-drn
  1 562     109.64000702   10000.00000000  surf-drn
  1 563     109.52740479   10000.00000000  surf-drn
  1 564     109.50566864   10000.00000000  surf-drn
  1 565     109.22352600   10000.00000000  surf-drn
  1 566     109.59346008   10000.00000000  surf-drn
  1 567     109.84160614   10000.00000000  surf-drn
  1 568     109.49510956   10000.00000000  surf-drn
  1 569     109.57598114   10000.00000000  surf-drn
  1 570     109.47554016   10000.00000000  surf-drn
  1 571     109.61917877   10000.00000000  surf-drn
  1 572     109.48242950   10000.00000000  surf-drn
  1 573     109.64700317   10000.00000000  surf-drn
  1 574     109.93532562   10000.00000000  surf-drn
  1 575     110.37503052   10000.00000000  surf-drn