# File generated by Flopy version 3.3.5 on 09/19/2021 at 12:02:07.
BEGIN options
  BOUNDNAMES
  OBS6  FILEIN  sgn.riv.obs
END options

BEGIN dimensions
  MAXBOUND  815
END dimensions

BEGIN period  1
    OPEN/CLOSE  'sgn.riv_stress_period_data_1.txt'
END period  1

