# File generated by Flopy version 3.3.3 on 07/03/2021 at 16:26:47.
BEGIN options
  TIME_UNITS  seconds
  START_DATE_TIME  2021-06-01
END options

BEGIN dimensions
  NPER  1
END dimensions

BEGIN perioddata
  1.57680000E+09  4       1.10000000
END perioddata

