# File generated by Flopy version 3.3.4 on 08/27/2021 at 18:57:14.
BEGIN options
  READASARRAYS
END options

BEGIN period  1
  recharge
    CONSTANT  1.36986301E-04
END period  1

