# File generated by Flopy version 3.3.4 on 08/24/2021 at 17:06:59.
BEGIN options
  BUDGET  FILEOUT  symp01.cbb
  HEAD  FILEOUT  symp01.hds
END options

BEGIN period  1
  SAVE  HEAD  ALL
  SAVE  BUDGET  ALL
  PRINT  HEAD  LAST
END period  1

