# File generated by Flopy version 3.3.4 on 08/27/2021 at 18:57:14.
BEGIN options
  COMPLEXITY  simple
END options

BEGIN linear
  LINEAR_ACCELERATION  bicgstab
END linear

