# File generated by Flopy version 3.3.4 on 08/24/2021 at 17:06:59.
BEGIN options
  PRINT_FLOWS
  SAVE_FLOWS
END options

BEGIN packages
  DIS6  symp01.dis  dis
  IC6  symp01.ic  ic
  NPF6  symp01.npf  npf
  RCH6  symp01.rcha  rch
  RIV6  symp01.riv  riv_0
  OC6  symp01.oc  oc
END packages

