# File generated by Flopy version 3.3.4 on 08/24/2021 at 17:06:59.
BEGIN options
  COMPLEXITY  simple
END options

BEGIN linear
  LINEAR_ACCELERATION  bicgstab
END linear

