# File generated by Flopy version 3.3.4 on 09/12/2021 at 15:44:52.
BEGIN options
END options

BEGIN timing
  TDIS6  symple_ex06.tdis
END timing

BEGIN models
  gwf6  symp06.nam  symp06
END models

BEGIN exchanges
END exchanges

BEGIN solutiongroup  1
  ims6  symple_ex06.ims  symp06
END solutiongroup  1

