# File generated by Flopy version 3.3.4 on 08/26/2021 at 15:17:50.
BEGIN options
  DIGITS  10
END options

BEGIN continuous  FILEOUT  wel_obs.csv
  wel1  WEL  w1
  wel2  WEL  w2
END continuous  FILEOUT  wel_obs.csv

