# File generated by Flopy version 3.3.4 on 08/26/2021 at 15:17:50.
BEGIN griddata
  strt  LAYERED
    INTERNAL  FACTOR  1.0
          50.00000000      50.00000000      50.00000000      50.00000000      50.00000000      50.00000000      50.00000000      50.00000000      50.00000000      50.00000000
          50.00000000      50.00000000      50.00000000      50.00000000      50.00000000      50.00000000      50.00000000      50.00000000      50.00000000      50.00000000
          50.00000000      50.00000000      50.00000000      50.00000000      50.00000000      50.00000000      50.00000000      50.00000000      50.00000000      50.00000000
          50.00000000      50.00000000      50.00000000      50.00000000      50.00000000      50.00000000      50.00000000      50.00000000      50.00000000      50.00000000
          50.00000000      50.00000000      50.00000000      50.00000000      50.00000000      50.00000000      50.00000000      50.00000000      50.00000000      50.00000000
          50.00000000      50.00000000      50.00000000      50.00000000      50.00000000      50.00000000      50.00000000      50.00000000      50.00000000      50.00000000
          50.00000000      50.00000000      50.00000000      50.00000000      50.00000000      50.00000000      50.00000000      50.00000000      50.00000000      50.00000000
          50.00000000      50.00000000      50.00000000      50.00000000      50.00000000      50.00000000      50.00000000      50.00000000      50.00000000      50.00000000
          50.00000000      50.00000000      50.00000000      50.00000000      50.00000000      50.00000000      50.00000000      50.00000000      50.00000000      50.00000000
          50.00000000      50.00000000      50.00000000      50.00000000      50.00000000      50.00000000      50.00000000      50.00000000      50.00000000      50.00000000
          50.00000000      50.00000000      50.00000000      50.00000000      50.00000000      50.00000000      50.00000000      50.00000000      50.00000000      50.00000000
          50.00000000      50.00000000      50.00000000      50.00000000      50.00000000      50.00000000      50.00000000      50.00000000      50.00000000      50.00000000
          50.00000000      50.00000000      50.00000000      50.00000000      50.00000000      50.00000000      50.00000000      50.00000000      50.00000000      50.00000000
          50.00000000      50.00000000      50.00000000      50.00000000      50.00000000      50.00000000      50.00000000      50.00000000      50.00000000      50.00000000
          50.00000000      50.00000000      50.00000000      50.00000000      50.00000000      50.00000000      50.00000000      50.00000000      50.00000000      50.00000000
    INTERNAL  FACTOR  1.0
          50.00000000      50.00000000      50.00000000      50.00000000      50.00000000      50.00000000      50.00000000      50.00000000      50.00000000      50.00000000
          50.00000000      50.00000000      50.00000000      50.00000000      50.00000000      50.00000000      50.00000000      50.00000000      50.00000000      50.00000000
          50.00000000      50.00000000      50.00000000      50.00000000      50.00000000      50.00000000      50.00000000      50.00000000      50.00000000      50.00000000
          50.00000000      50.00000000      50.00000000      50.00000000      50.00000000      50.00000000      50.00000000      50.00000000      50.00000000      50.00000000
          50.00000000      50.00000000      50.00000000      50.00000000      50.00000000      50.00000000      50.00000000      50.00000000      50.00000000      50.00000000
          50.00000000      50.00000000      50.00000000      50.00000000      50.00000000      50.00000000      50.00000000      50.00000000      50.00000000      50.00000000
          50.00000000      50.00000000      50.00000000      50.00000000      50.00000000      50.00000000      50.00000000      50.00000000      50.00000000      50.00000000
          50.00000000      50.00000000      50.00000000      50.00000000      50.00000000      50.00000000      50.00000000      50.00000000      50.00000000      50.00000000
          50.00000000      50.00000000      50.00000000      50.00000000      50.00000000      50.00000000      50.00000000      50.00000000      50.00000000      50.00000000
          50.00000000      50.00000000      50.00000000      50.00000000      50.00000000      50.00000000      50.00000000      50.00000000      50.00000000      50.00000000
          50.00000000      50.00000000      50.00000000      50.00000000      50.00000000      50.00000000      50.00000000      50.00000000      50.00000000      50.00000000
          50.00000000      50.00000000      50.00000000      50.00000000      50.00000000      50.00000000      50.00000000      50.00000000      50.00000000      50.00000000
          50.00000000      50.00000000      50.00000000      50.00000000      50.00000000      50.00000000      50.00000000      50.00000000      50.00000000      50.00000000
          50.00000000      50.00000000      50.00000000      50.00000000      50.00000000      50.00000000      50.00000000      50.00000000      50.00000000      50.00000000
          50.00000000      50.00000000      50.00000000      50.00000000      50.00000000      50.00000000      50.00000000      50.00000000      50.00000000      50.00000000
    INTERNAL  FACTOR  1.0
          50.00000000      50.00000000      50.00000000      50.00000000      50.00000000      50.00000000      50.00000000      50.00000000      50.00000000      50.00000000
          50.00000000      50.00000000      50.00000000      50.00000000      50.00000000      50.00000000      50.00000000      50.00000000      50.00000000      50.00000000
          50.00000000      50.00000000      50.00000000      50.00000000      50.00000000      50.00000000      50.00000000      50.00000000      50.00000000      50.00000000
          50.00000000      50.00000000      50.00000000      50.00000000      50.00000000      50.00000000      50.00000000      50.00000000      50.00000000      50.00000000
          50.00000000      50.00000000      50.00000000      50.00000000      50.00000000      50.00000000      50.00000000      50.00000000      50.00000000      50.00000000
          50.00000000      50.00000000      50.00000000      50.00000000      50.00000000      50.00000000      50.00000000      50.00000000      50.00000000      50.00000000
          50.00000000      50.00000000      50.00000000      50.00000000      50.00000000      50.00000000      50.00000000      50.00000000      50.00000000      50.00000000
          50.00000000      50.00000000      50.00000000      50.00000000      50.00000000      50.00000000      50.00000000      50.00000000      50.00000000      50.00000000
          50.00000000      50.00000000      50.00000000      50.00000000      50.00000000      50.00000000      50.00000000      50.00000000      50.00000000      50.00000000
          50.00000000      50.00000000      50.00000000      50.00000000      50.00000000      50.00000000      50.00000000      50.00000000      50.00000000      50.00000000
          50.00000000      50.00000000      50.00000000      50.00000000      50.00000000      50.00000000      50.00000000      50.00000000      50.00000000      50.00000000
          50.00000000      50.00000000      50.00000000      50.00000000      50.00000000      50.00000000      50.00000000      50.00000000      50.00000000      50.00000000
          50.00000000      50.00000000      50.00000000      50.00000000      50.00000000      50.00000000      50.00000000      50.00000000      50.00000000      50.00000000
          50.00000000      50.00000000      50.00000000      50.00000000      50.00000000      50.00000000      50.00000000      50.00000000      50.00000000      50.00000000
          50.00000000      50.00000000      50.00000000      50.00000000      50.00000000      50.00000000      50.00000000      50.00000000      50.00000000      50.00000000
END griddata

