# File generated by Flopy version 3.3.4 on 08/26/2021 at 15:17:50.
BEGIN options
END options

BEGIN dimensions
  NLAY  3
  NROW  15
  NCOL  10
END dimensions

BEGIN griddata
  delr
    CONSTANT     100.00000000
  delc
    CONSTANT     100.00000000
  top
    CONSTANT      50.00000000
  botm  LAYERED
    CONSTANT      40.00000000
    CONSTANT      35.00000000
    CONSTANT       0.00000000
END griddata

