# File generated by Flopy version 3.3.4 on 08/26/2021 at 15:17:50.
BEGIN options
  PRINT_FLOWS
  SAVE_FLOWS
END options

BEGIN packages
  obs6  symp06.obs  obs_1
  riv6  symp06.riv  riv_0
  sto6  symp06.sto  sto
  oc6  symp06.oc  oc
  rch6  symp06.rcha  rch
  npf6  symp06.npf  npf
  ic6  symp06.ic  ic
  dis6  symp06.dis  dis
  WEL6  symp06.wel  wel_0
END packages

