# File generated by Flopy version 3.3.4 on 08/26/2021 at 15:17:50.
BEGIN options
  BOUNDNAMES
  PRINT_INPUT
  PRINT_FLOWS
  SAVE_FLOWS
  TS6  FILEIN  wel.ts
  OBS6  FILEIN  symp06.wel.obs
END options

BEGIN dimensions
  MAXBOUND  2
END dimensions

BEGIN period  1
END period  1

BEGIN period  2
  3 6 4  well1  w1
  3 11 7  well2  w2
END period  2

