# File generated by Flopy version 3.3.4 on 09/12/2021 at 15:44:52.
BEGIN options
  DIGITS  10
END options

BEGIN continuous  FILEOUT  riv_obs.csv
  river  riv  river_bc
  riv_7_9  riv  1 8 10
END continuous  FILEOUT  riv_obs.csv

BEGIN continuous  FILEOUT  riv_obs2.csv
  riv_7_0  riv  1 8 1
END continuous  FILEOUT  riv_obs2.csv

