# File generated by Flopy version 3.3.4 on 09/12/2021 at 15:44:52.
BEGIN options
  COMPLEXITY  simple
END options

BEGIN linear
  LINEAR_ACCELERATION  bicgstab
END linear

