# File generated by Flopy version 3.3.4 on 08/26/2021 at 15:17:50.
BEGIN options
  SAVE_FLOWS
  SAVE_SPECIFIC_DISCHARGE
END options

BEGIN griddata
  icelltype  LAYERED
    CONSTANT  1
    CONSTANT  0
    CONSTANT  0
  k  LAYERED
    CONSTANT       5.00000000
    CONSTANT       0.10000000
    CONSTANT      10.00000000
END griddata

