# File generated by Flopy version 3.3.4 on 08/26/2021 at 15:17:50.
BEGIN options
  BUDGET  FILEOUT  symp06.cbb
  HEAD  FILEOUT  symp06.hds
END options

BEGIN period  1
  SAVE  head  all
  SAVE  budget  all
  PRINT  head  last
END period  1

