# File generated by Flopy version 3.3.4 on 09/12/2021 at 15:44:52.
BEGIN options
  READASARRAYS
END options

BEGIN period  1
  recharge
    CONSTANT  1.36986301E-04
END period  1

