# File generated by Flopy version 3.3.4 on 08/26/2021 at 15:17:50.
BEGIN options
  SAVE_FLOWS
END options

BEGIN griddata
  iconvert  LAYERED
    CONSTANT  1
    CONSTANT  0
    CONSTANT  0
  ss  LAYERED
    CONSTANT  1.00000000E-05
    CONSTANT  1.00000000E-05
    CONSTANT  1.00000000E-05
  sy  LAYERED
    CONSTANT       0.20000000
    CONSTANT       0.20000000
    CONSTANT       0.20000000
END griddata

BEGIN period  1
  STEADY-STATE
END period  1

BEGIN period  2
  TRANSIENT
END period  2

