# File generated by Flopy version 3.3.4 on 08/26/2021 at 15:17:50.
BEGIN options
  COMPLEXITY  simple
END options

BEGIN linear
  LINEAR_ACCELERATION  bicgstab
END linear

