# File generated by Flopy version 3.3.4 on 09/12/2021 at 15:44:52.
BEGIN options
  BOUNDNAMES
  OBS6  FILEIN  symp06.riv.obs
END options

BEGIN dimensions
  MAXBOUND  10
END dimensions

BEGIN period  1
  1 8 1      45.00000000    1000.00000000      40.00000000  river_bc
  1 8 2      45.00000000    1000.00000000      40.00000000  river_bc
  1 8 3      45.00000000    1000.00000000      40.00000000  river_bc
  1 8 4      45.00000000    1000.00000000      40.00000000  river_bc
  1 8 5      45.00000000    1000.00000000      40.00000000  river_bc
  1 8 6      45.00000000    1000.00000000      40.00000000  river_bc
  1 8 7      45.00000000    1000.00000000      40.00000000  river_bc
  1 8 8      45.00000000    1000.00000000      40.00000000  river_bc
  1 8 9      45.00000000    1000.00000000      40.00000000  river_bc
  1 8 10      45.00000000    1000.00000000      40.00000000  river_bc
END period  1

