# File generated by Flopy version 3.3.4 on 09/05/2021 at 19:37:07.
BEGIN options
  DIGITS  10
END options

BEGIN continuous  FILEOUT  riv_obs.csv
  river  RIV  river_bc
  riv_7_9  RIV  1 8 10
END continuous  FILEOUT  riv_obs.csv

BEGIN continuous  FILEOUT  riv_obs2.csv
  riv_7_0  RIV  1 8 1
END continuous  FILEOUT  riv_obs2.csv

