# File generated by Flopy version 3.3.4 on 09/05/2021 at 19:37:07.
BEGIN options
  READASARRAYS
END options

BEGIN period  1
  recharge
    CONSTANT  1.36986301E-04
END period  1

