# File generated by Flopy version 3.3.4 on 09/05/2021 at 19:37:07.
BEGIN options
  PRINT_INPUT
  PRINT_FLOWS
  SAVE_FLOWS
END options

BEGIN dimensions
  MAXBOUND  2
END dimensions

BEGIN period  1
END period  1

BEGIN period  2
  3 6 4    -100.00000000
  3 11 7     -50.00000000
END period  2

