# File generated by Flopy version 3.3.4 on 08/26/2021 at 15:17:46.
BEGIN options
  PRINT_FLOWS
  SAVE_FLOWS
END options

BEGIN packages
  DIS6  symp06.dis  dis
  IC6  symp06.ic  ic
  NPF6  symp06.npf  npf
  RCH6  symp06.rcha  rch
  WEL6  symp06.wel  wel_0
  OC6  symp06.oc  oc
  STO6  symp06.sto  sto
  RIV6  symp06.riv  riv_0
  OBS6  symp06.obs  obs_1
END packages

