# File generated by Flopy version 3.3.4 on 09/05/2021 at 19:37:07.
BEGIN options
  TIME_UNITS  days
END options

BEGIN dimensions
  NPER  2
END dimensions

BEGIN perioddata
       1.00000000  1       1.00000000
     365.00000000  12       1.00000000
END perioddata

