# File generated by Flopy version 3.3.4 on 09/05/2021 at 19:37:07.
BEGIN options
  COMPLEXITY  simple
END options

BEGIN linear
  LINEAR_ACCELERATION  bicgstab
END linear

