# File generated by Flopy version 3.3.4 on 08/26/2021 at 15:17:46.
BEGIN options
  BUDGET  FILEOUT  symp06.cbb
  HEAD  FILEOUT  symp06.hds
END options

BEGIN period  1
  SAVE  HEAD  ALL
  SAVE  BUDGET  ALL
  PRINT  HEAD  LAST
END period  1

