# MODFLOW2000 Head Observation File
# Groundwater Vistas also writes drawdown targets here
  45  0  0 500 -999
  1.0  1.0
PROF_11 1  129  53  1  9.900000  0.293600  0.023200  100.660000  1.000000  1  1
PROF_21 1  173  41  1  9.900000  0.448800  -0.170400  100.200000  1.000000  1  1
PROF_1 1  64  69  1  9.900000  -0.096800  -0.148800  101.160000  1.000000  1  1
PROF_2 1  66  119  1  9.900000  0.332000  -0.109600  101.220000  0.100000  1  1
PROF_3 1  59  89  1  9.900000  -0.159200  0.213600  101.220000  1.000000  1  1
PROF_4 1  77  195  1  9.900000  0.472800  -0.498400  101.300000  1.000000  1  1
PROF_5 1  155  161  1  9.900000  -0.159200  0.042400  100.380000  1.000000  1  1
PROF_6 1  124  174  1  9.900000  0.100000  -0.469600  100.640000  1.000000  1  1
P1002 1  103  70  1  9.900000  0.085600  -0.168000  100.800000  1.000000  1  1
P1003 1  100  82  1  9.900000  0.186400  0.463200  100.860000  1.000000  1  1
PC1_AMS_BIS 1  114  86  1  9.900000  -0.322400  -0.013600  100.790000  1.000000  1  1
PC2_AMS 1  115  62  1  9.900000  -0.117600  0.206400  100.730000  1.000000  1  1
PC3_AMS 1  132  70  1  9.900000  -0.226400  0.292000  100.670000  1.000000  1  1
PC4_AMS 1  143  79  1  9.900000  0.055200  0.431200  100.590000  1.000000  1  1
PIEZ1 1  159  68  1  9.900000  0.071200  0.328000  100.500000  1.000000  1  1
PIEZ11 1  197  98  1  9.900000  0.308800  0.125600  99.670000  1.000000  1  1
PIEZ13 1  200  106  1  9.900000  0.250000  0.364000  99.590000  1.000000  1  1
PIEZ14 1  202  96  1  9.900000  0.282800  0.021600  99.570000  1.000000  1  1
PIEZ15 1  204  88  1  9.900000  -0.230400  0.199200  99.610000  1.000000  1  1
PIEZ16 1  205  81  1  9.900000  0.064400  0.055200  99.550000  1.000000  1  1
PIEZ17 1  204  78  1  9.900000  -0.112800  0.112000  99.570000  1.000000  1  1
PIEZ2 1  165  70  1  9.900000  -0.279200  0.309600  100.470000  1.000000  1  1
PIEZ3 1  170  72  1  9.900000  -0.120800  0.270400  100.450000  1.000000  1  1
PIEZ5 1  176  75  1  9.900000  -0.306400  0.222400  100.360000  1.000000  1  1
PIEZ6 1  178  77  1  9.900000  -0.128000  0.275200  100.300000  0.100000  1  1
PIEZ7 1  182  81  1  9.900000  0.132000  0.325600  100.150000  1.000000  1  1
PIEZ8 1  186  87  1  9.900000  0.348000  0.064800  99.900000  1.000000  1  1
PIEZ9 1  190  93  1  9.900000  -0.029600  -0.194400  99.840000  1.000000  1  1
PIEZM1 1  159  75  1  9.900000  0.469600  0.112800  100.470000  1.000000  1  1
PIEZM2 1  171  82  1  9.900000  -0.044000  0.277600  100.330000  1.000000  1  1
PIEZM3 1  195  112  1  9.900000  -0.025600  -0.391200  99.750000  1.000000  1  1
PIEZM5 1  199  97  1  9.900000  -0.212000  -0.010400  99.580000  1.000000  1  1
PIEZM6 1  201  85  1  9.900000  -0.024400  -0.112800  99.500000  1.000000  1  1
PIEZM7 1  176  92  1  9.900000  0.367200  0.444000  100.210000  1.000000  1  1
PIEZM8 1  188  105  1  9.900000  -0.007200  0.276000  99.830000  0.100000  1  1
PP202 1  90  71  1  9.900000  0.150400  0.192000  100.970000  1.000000  1  1
PZ18 1  185  49  1  9.900000  0.348000  0.295200  100.910000  0.500000  1  1
PZ20 1  189  37  1  9.900000  -0.025600  0.320000  99.400000  0.100000  1  1
PZ4 1  103  56  1  9.900000  -0.191200  -0.064800  100.770000  1.000000  1  1
PZ7 1  116  182  1  9.900000  0.029600  0.380000  100.820000  1.000000  1  1
PZB 1  69  139  1  9.900000  -0.026400  0.170400  101.240000  0.100000  1  1
PZP1_BIS 1  92  63  1  9.900000  -0.016000  -0.318400  100.890000  1.000000  1  1
PZ_ALER 1  185  41  1  9.900000  -0.330400  0.443600  100.210000  1.000000  1  1
PROF_22 1  184  46  1  9.900000  0.004800  -0.433600  100.280000  1.000000  1  1
Sp1_PzEst 1  159  32  1  9.900000  -0.023200  -0.079600  100.420000  1.000000  1  1
