# File generated by Flopy version 3.3.4 on 08/29/2021 at 16:21:23.
BEGIN options
  TIME_UNITS  days
END options

BEGIN dimensions
  NPER  1
END dimensions

BEGIN perioddata
       1.00000000  1       1.00000000
END perioddata

