# File generated by Flopy version 3.3.4 on 08/25/2021 at 14:34:53.
BEGIN griddata
  strt
    CONSTANT      50.00000000
END griddata

