# File generated by Flopy version 3.3.4 on 08/25/2021 at 14:34:53.
BEGIN options
  COMPLEXITY  moderate
END options

BEGIN linear
  LINEAR_ACCELERATION  bicgstab
END linear

