# File generated by Flopy version 3.3.4 on 08/29/2021 at 16:21:23.
BEGIN options
  READASARRAYS
END options

BEGIN period  1
  recharge
    CONSTANT  1.36986301E-04
END period  1

