# File generated by Flopy version 3.3.4 on 08/29/2021 at 16:21:23.
BEGIN options
  COMPLEXITY  moderate
END options

BEGIN linear
  LINEAR_ACCELERATION  bicgstab
END linear

