# File generated by Flopy version 3.3.4 on 08/29/2021 at 16:21:23.
BEGIN options
  PRINT_FLOWS
  SAVE_FLOWS
END options

BEGIN packages
  DIS6  symp03.dis  dis
  IC6  symp03.ic  ic
  NPF6  symp03.npf  npf
  RCH6  symp03.rcha  rch
  RIV6  symp03.riv  riv_0
  OC6  symp03.oc  oc
END packages

