# File generated by Flopy version 3.3.4 on 08/29/2021 at 18:54:13.
BEGIN options
END options

BEGIN timing
  TDIS6  symple_ex04.tdis
END timing

BEGIN models
  gwf6  symp03.nam  symp03
END models

BEGIN exchanges
END exchanges

BEGIN solutiongroup  1
  ims6  symple_ex04.ims  symp03
END solutiongroup  1

