# File generated by Flopy version 3.3.4 on 08/29/2021 at 18:54:13.
BEGIN options
  PRINT_FLOWS
  SAVE_FLOWS
END options

BEGIN packages
  NPF6  symp03.npf  npf
  DIS6  symp03.dis  dis
  IC6  symp03.ic  ic
  RIV6  symp03.riv  riv_0
  OC6  symp03.oc  oc
  RCH6  symp03.rcha  rch
END packages

