# File generated by Flopy version 3.3.4 on 08/29/2021 at 18:54:13.
BEGIN options
  COMPLEXITY  simple
END options

BEGIN linear
  LINEAR_ACCELERATION  bicgstab
END linear

