# File generated by Flopy version 3.3.4 on 08/25/2021 at 14:35:43.
BEGIN options
  PRINT_FLOWS
  SAVE_FLOWS
END options

BEGIN packages
  OC6  symp03.oc  oc
  RIV6  symp03.riv  riv_0
  IC6  symp03.ic  ic
  DIS6  symp03.dis  dis
  NPF6  symp03.npf  npf
  RCH6  symp03.rcha  rch
END packages

