# File generated by Flopy version 3.3.4 on 08/25/2021 at 14:35:43.
BEGIN options
  READASARRAYS
END options

BEGIN period  1
  recharge
    CONSTANT  1.37000000E-04
END period  1

BEGIN period  2
  recharge
    INTERNAL  FACTOR  1.0
    2.74000000E-04  2.74000000E-04  2.74000000E-04  2.74000000E-04  2.74000000E-04  2.74000000E-04  2.74000000E-04  2.74000000E-04  2.74000000E-04  2.74000000E-04
    2.74000000E-04  2.74000000E-04  2.74000000E-04  2.74000000E-04  2.74000000E-04  2.74000000E-04  2.74000000E-04  2.74000000E-04  2.74000000E-04  2.74000000E-04
    2.74000000E-04  2.74000000E-04  2.74000000E-04  2.74000000E-04  2.74000000E-04  2.74000000E-04  2.74000000E-04  2.74000000E-04  2.74000000E-04  2.74000000E-04
    2.74000000E-04  2.74000000E-04  2.74000000E-04  2.74000000E-04  2.74000000E-04  2.74000000E-04  2.74000000E-04  2.74000000E-04  2.74000000E-04  2.74000000E-04
    2.74000000E-04  2.74000000E-04  2.74000000E-04  2.74000000E-04  2.74000000E-04  2.74000000E-04  2.74000000E-04  2.74000000E-04  2.74000000E-04  2.74000000E-04
    2.74000000E-04  2.74000000E-04  2.74000000E-04  2.74000000E-04  2.74000000E-04  2.74000000E-04  2.74000000E-04  2.74000000E-04  2.74000000E-04  2.74000000E-04
    2.74000000E-04  2.74000000E-04  2.74000000E-04  2.74000000E-04  2.74000000E-04  2.74000000E-04  2.74000000E-04  2.74000000E-04  2.74000000E-04  2.74000000E-04
         0.00000000       0.00000000       0.00000000       0.00000000       0.00000000       0.00000000       0.00000000       0.00000000       0.00000000       0.00000000
         0.00000000       0.00000000       0.00000000       0.00000000       0.00000000       0.00000000       0.00000000       0.00000000       0.00000000       0.00000000
         0.00000000       0.00000000       0.00000000       0.00000000       0.00000000       0.00000000       0.00000000       0.00000000       0.00000000       0.00000000
         0.00000000       0.00000000       0.00000000       0.00000000       0.00000000       0.00000000       0.00000000       0.00000000       0.00000000       0.00000000
         0.00000000       0.00000000       0.00000000       0.00000000       0.00000000       0.00000000       0.00000000       0.00000000       0.00000000       0.00000000
         0.00000000       0.00000000       0.00000000       0.00000000       0.00000000       0.00000000       0.00000000       0.00000000       0.00000000       0.00000000
         0.00000000       0.00000000       0.00000000       0.00000000       0.00000000       0.00000000       0.00000000       0.00000000       0.00000000       0.00000000
         0.00000000       0.00000000       0.00000000       0.00000000       0.00000000       0.00000000       0.00000000       0.00000000       0.00000000       0.00000000
END period  2

