# File generated by Flopy version 3.3.4 on 08/26/2021 at 13:56:40.
BEGIN options
  DIGITS  10
END options

BEGIN continuous  FILEOUT  head_obs.csv
  h_0_7_4  HEAD  1 8 5
  h_2_7_4  HEAD  3 8 5
END continuous  FILEOUT  head_obs.csv

BEGIN continuous  FILEOUT  drawdown_obs.csv
  dd_0_7_4  DRAWDOWN  1 8 5
  dd_2_7_4  DRAWDOWN  3 8 5
END continuous  FILEOUT  drawdown_obs.csv

