# File generated by Flopy version 3.3.4 on 09/04/2021 at 21:05:28.
BEGIN options
  PRINT_INPUT
  PRINT_FLOWS
  SAVE_FLOWS
END options

BEGIN dimensions
  MAXBOUND  2
END dimensions

BEGIN period  1
  3 6 4    -100.00000000
END period  1

BEGIN period  2
END period  2

BEGIN period  3
  3 6 4    -100.00000000
  3 11 7     -50.00000000
END period  3

