# File generated by Flopy version 3.3.4 on 09/04/2021 at 21:05:28.
BEGIN options
  PRINT_FLOWS
  SAVE_FLOWS
END options

BEGIN packages
  DIS6  symp03.dis  dis
  IC6  symp03.ic  ic
  NPF6  symp03.npf  npf
  RCH6  symp03.rcha  rch
  RIV6  symp03.riv  riv_0
  OC6  symp03.oc  oc
  WEL6  symp03.wel  wel_0
END packages

