# File generated by Flopy version 3.3.4 on 09/04/2021 at 21:05:28.
BEGIN options
  READASARRAYS
END options

BEGIN period  1
  recharge
    CONSTANT  1.36986301E-04
END period  1

