# File generated by Flopy version 3.3.4 on 09/04/2021 at 21:05:28.
BEGIN options
  BUDGET  FILEOUT  symp03.cbb
  HEAD  FILEOUT  symp03.hds
END options

BEGIN period  1
  SAVE  HEAD  ALL
  SAVE  BUDGET  ALL
  PRINT  HEAD  LAST
END period  1

