# File generated by Flopy version 3.3.4 on 09/04/2021 at 21:05:28.
BEGIN options
  COMPLEXITY  simple
END options

BEGIN linear
  LINEAR_ACCELERATION  bicgstab
END linear

