# File generated by Flopy version 3.3.3 on 06/13/2021 at 12:17:18.
BEGIN options
  CONTINUE
END options

BEGIN timing
  TDIS6  sim.tdis
END timing

BEGIN models
  gwf6  sgn.nam  sgn
END models

BEGIN exchanges
END exchanges

BEGIN solutiongroup  1
  ims6  sim.ims  sgn
END solutiongroup  1

