# File generated by Flopy version 3.3.3 on 06/14/2021 at 16:02:56.
BEGIN options
  PRINT_FLOWS
  SAVE_FLOWS
END options

BEGIN packages
  OBS6  sgn.obs  obs_5
  GHB6  sgn.ghb  ghb_0
  WEL6  sgn.wel  wel_0
  DRN6  sgn2.drn  drn2
  RIV6  sgn.riv  riv_0
  RCH6  sgn.rch  rch
  NPF6  sgn.npf  npf
  IC6  sgn.ic  ic
  DISV6  sgn.disv  disv
  OC6  sgn.oc  oc
END packages

