# File generated by Flopy version 3.3.3 on 06/06/2021 at 10:30:22.
BEGIN griddata
  strt  LAYERED
    INTERNAL  FACTOR  1.0
         113.43469238     112.67948151     113.93807220     113.71001434     112.97578430     113.07405853     112.56600952     111.98143768     112.76204681     112.86724854     112.97869110     112.95841217     112.69198608     111.95837402     111.69538879     111.68218994     111.58795929     110.90376282     109.75057220     113.95251465
         110.31738281     110.18196869     109.95732117     109.81911469     109.93745422     109.77133179     109.69521332     109.85753632     110.62235260     112.76677704     109.85281372     111.80534363     109.97138977     112.53189850     109.73324585     109.42636108     108.99903107     108.77707672     108.37596130     108.39597321
         108.19140625     108.26815033     108.12098694     108.17947388     108.75241089     113.45393372     113.68417358     113.71906281     113.60700989     113.18914795     112.47573853     112.30047607     112.22228241     112.24063873     112.23727417     112.57023621     112.81928253     112.89929962     111.88928223     111.65834808
         111.63277435     111.75603485     110.40472412     111.09544373     110.09270477     110.47113037     110.02919006     109.70420074     109.99176025     109.69795990     109.61568451     109.41561890     109.76780701     109.90292358     114.64038086     108.30795288     114.07057190     109.12433624     111.73992157     109.08927155
         109.90013123     108.04646301     109.71720123     109.73899078     108.86521912     108.12383270     107.96685791     107.82070923     108.09554291     108.28876495     113.20729828     113.35665894     113.14514160     112.96440887     112.34770966     112.29345703     112.12821198     111.10652161     112.01164246     111.86465454
         111.39027405     111.31987000     111.50773621     111.42997742     111.49411011     111.59507751     111.00225830     109.37473297     114.39511871     109.95597076     110.01485443     109.89708710     109.78268433     109.85968018     109.62015533     109.70777893     109.80113220     110.17921448     109.85864258     113.89008331
         110.29811859     110.44753265     108.31959534     108.14011383     108.18921661     108.74598694     108.43838501     108.59520721     108.55280304     107.65270996     108.17996979     108.27389526     108.64255524     108.17930603     108.75892639     109.64040375     109.82408142     108.19071960     113.00360107     112.39455414
         112.61523438     112.54372406     112.01944733     111.87921143     111.49264526     111.11748505     111.17179108     110.95557404     111.14250183     111.10031128     110.45534515     110.37029266     110.26119995     110.17173004     108.55927277     108.83305359     113.96481323     109.73123932     109.59226227     109.76347351
         109.64144897     109.65119934     109.71982574     109.28121948     109.55812073     109.88050079     110.86206055     111.83916473     111.14336395     107.48723602     108.19411469     107.10967255     107.74099731     108.51074219     108.83781433     107.98739624     108.27001953     107.77255249     107.91964722     107.78040314
         107.96704865     108.37611389     108.03279114     107.80519867     107.66101837     107.73472595     112.92156219     112.44870758     112.42868805     112.04222870     111.76132202     111.83084106     111.19859314     110.72864532     110.23889160     110.53394318     110.28525543     110.28507996     110.34860992     110.37947083
         110.31076813     110.12258911     110.66611481     115.40902710     110.69347382     109.21401215     109.11982727     109.28984070     108.86907959     109.43267822     109.41212463     109.75489807     109.72831726     109.43743896     109.87969971     110.11291504     108.75472260     107.50009918     107.66382599     107.62013245
         107.67816162     107.67182159     107.69019318     107.78761292     107.70384979     107.76107025     107.76210022     107.52790070     107.25620270     107.08235168     107.62312317     107.62297058     107.42284393     107.65736389     111.96353912     111.88945770     112.11571503     111.91873169     111.52706146     111.41761780
         111.02674103     110.79537201     110.60755920     110.53724670     110.46726227     110.31896973     110.30174255     110.33738708     110.23104858     109.93782043     113.80032349     113.92021942     108.86022949     108.88121033     108.84874725     108.71754456     108.67311096     108.99469757     109.06476593     109.13390350
         108.49086761     109.22320557     109.06018829     108.88679504     108.97942352     107.65740204     108.10408783     107.64733887     108.18263245     107.56298065     107.86837769     107.84442902     107.60292053     107.34341431     107.63171387     106.80461121     106.78224945     106.87131500     107.00250244     111.83759308
         112.19542694     111.53800201     111.32201385     110.81999969     110.63353729     110.51713562     110.71501160     110.61865234     110.39952850     110.27023315     110.28010559     110.26125336     110.31757355     110.31208038     109.94463348     110.81914520     113.91695404     109.05434418     108.77931976     108.45873260
         108.68522644     108.20241547     108.70682526     108.67997742     108.82707977     108.66045380     108.61702728     107.89168549     108.29705811     109.68550110     108.06285858     107.68256378     107.53525543     107.32553101     107.18206024     107.38128662     107.41497803     106.99941254     107.41029358     107.43987274
         107.37559509     107.37236023     106.85893250     106.60183716     106.64855194     106.60782623     106.63016510     111.99246979     111.71264648     111.86141968     111.37299347     111.61741638     110.85012054     110.54648590     110.37937927     110.38553619     110.29021454     110.45146179     110.27148438     110.33206177
         110.40717316     110.08093262     109.85366821     111.15105438     111.61065674     108.66371155     108.69658661     108.31509399     107.94406128     108.01443481     103.31223297     108.45667267     108.78696442     107.79946136     107.57183838     107.57295227     108.36319733     111.80081940     107.48252869     106.87126160
         106.99304962     107.64757538     107.24409485     106.96384430     106.99607086     107.53816223     107.10791016     106.34319305     106.38833618     106.41110992     106.41013336     106.39772034     110.85148621     111.46358490     111.65290070     110.16085815     110.65345764     111.54963684     110.74015045     110.59578705
         110.98837280     110.57393646     110.26959991     110.32971191     110.25856781     110.29709625     110.03732300     110.01607513     112.09696960     109.79617310     109.29933167     108.31198120     108.32727051     108.17809296     107.75789642     107.52289581     106.80588531     108.32547760     107.55947113     107.47247314
         107.56148529     107.63017273     110.87289429     106.76782990     106.65434265     107.30461884     107.04486847     107.10854340     107.48494720     106.66410828     106.95307922     106.89908600     106.06714630     106.10772705     106.18148041     106.15409088     106.11899567     110.25050354     111.33155060     111.61312103
         111.41075897     111.27310944     110.64025879     111.13156128     109.85646057     110.43640137     110.50844574     110.06806183     110.30584717     110.31571198     110.26287842     109.94696045     112.15132904     112.95240784     109.25965881     108.75335693     108.92779541     107.61736298     107.61076355     107.67832947
         107.73387909     107.43349457     108.06085205     107.71997070     107.60275269     107.54113007     107.81422424     108.29507446     108.70091248     107.18306732     106.59391022     107.95561218     108.16056061     108.33564758     106.84851074     106.55929565     106.94532776     106.83656311     107.25009918     106.77393341
         106.15029144     106.11940002     105.95527649     105.94637299     105.98891449     110.26875305     111.29029083     111.36656189     111.10384369     111.36138153     110.71636200     111.20942688     109.71390533     109.91984558     110.03475952     110.10130310     110.06253052     110.28251648     110.40963745     109.83158875
         114.49754333     110.38968658     108.89342499     108.28898621     108.10458374     107.82529449     107.46794891     107.70153046     107.04779053     107.36760712     107.27584076     108.06694031     107.13942719     107.74368286     107.95293427     107.87539673     112.42681885     107.82138062     107.50603485     106.54376221
         106.16872406     106.45680237     105.99877167     106.80692291     106.95240784     106.14533234     106.06328583     105.66931915     105.70135498     106.03245544     111.07708740     111.08792114     110.96246338     110.80416870     111.19548798     112.04482269     110.42258453     110.58384705     110.09143066     110.07467651
         110.74259949     109.90043640     109.86183929     109.98494720     110.31227875     111.11655426     109.75032043     108.65404510     108.25901031     108.09321594     107.75764465     107.52733612     107.01603699     107.40971375     107.19900513     107.18404388     107.58467865     108.10834503     107.54201508     107.13906097
         106.55114746     112.27024078     107.84462738     107.98822021     107.11959839     106.56159210     107.81517792     106.85240936     106.51123047     107.06606293     106.71296692     106.91698456     107.16130829     106.24141693     105.47519684     105.41771698     105.55552673     106.16921997     110.72817993     111.15541077
         110.65550995     110.85816193     111.39077759     113.55970001     110.41410065     110.35385895     110.59249878     110.92073822     111.18553162     109.89975739     109.46219635     109.07218933     110.60265350     110.24289703     109.41399384     108.39904785     108.06896973     107.97299194     107.49378967     107.63233948
         107.73161316     107.01894379     106.84295654     106.80633545     107.28434753     107.80785370     107.74426270     108.11263275     107.27452087     107.76799011     108.91238403     108.38195038     108.12976074     108.14124298     107.91617584     107.94788361     107.90256500     107.98132324     107.92690277     111.48816681
         107.87881470     109.63993073     108.66024017     108.07910919     107.86640167     107.68573761     108.03045654     107.45650482     106.69602966     106.48264313     106.39817047     106.25961304     107.16045380     106.59660339     105.49869537     105.19421387     105.36351776     106.13137054     110.04733276     111.33792114
         110.76139832     110.83363342     111.44444275     111.95730591     110.87088776     110.45313263     109.32019806     107.76046753     110.02111053     110.35710144     111.09300995     109.98012543     110.26103973     109.84024048     108.81719208     108.04242706     107.45714569     107.56658173     107.02102661     107.10356903
         107.12648010     106.64055634     106.66240692     107.25449371     106.66078186     106.26692200     106.49338531     107.87637329     108.27605438     106.90825653     107.32424927     108.05613708     107.65310669     107.18760681     107.56842804     106.78138733     107.52509308     107.59354401     107.50409698     107.89149475
         107.99954224     107.76749420     107.93537140     107.87451172     107.63565826     107.89412689     107.12950134     107.91008759     108.36171722     107.83440399     107.99990845     109.77175140     108.16650391     108.54743195     108.05360413     108.02074432     107.87156677     107.55821991     106.94592285     107.63224030
         106.53421021     106.34384918     105.80075836     105.69945526     105.43778229     105.74769592     105.72954559     106.06385803     106.24565125     105.85168457     106.40929413     106.67277527     107.09420013     106.56147766     107.41852570     106.43978882     106.04171753     107.27574158     106.54462433     105.45381165
         105.15735626     105.92476654     109.83294678     110.49059296     110.13635254     110.60576630     110.98594666     111.22543335     110.66613770     110.21029663     109.89952850     109.64650726     109.70723724     109.73507690     110.20364380     110.29490662     109.84867096     108.87947845     108.12620544     107.79618073
         107.43299866     107.49432373     107.22040558     107.08386993     106.93780518     106.95287323     107.33059692     106.70647430     106.79039001     106.68470001     107.52308655     106.50171661     106.30987549     106.14762115     106.70275116     107.03173828     106.65498352     106.93691254     106.66706085     106.82142639
         106.99726105     107.51115417     107.48017120     106.59748077     107.56624603     107.22995758     107.02301025     107.57832336     105.82387543     107.35156250     108.07527924     107.86259460     107.52237701     107.00851440     107.66770935     107.28958130     105.04666138     105.22190094     107.45346832     107.06278229
         106.21875763     106.94558716     106.38079834     105.92874146     106.17011261     106.13495636     104.65122223     105.00441742     105.29001617     105.05792236     105.22440338     105.44591522     104.96453857     104.56624603     105.08568573     104.91234589     104.76326752     104.70053864     105.29380035     106.09352875
         104.63000488     104.88590240     106.81996155     107.07556915     105.50027466     106.79250336     105.79875183     106.18801880     106.34949493     105.59541321     106.02825928     105.63242340     110.07930756     109.92924500     109.22383118     109.78839111     110.09162140     110.40323639     110.06890869     110.60393524
         109.93331146     109.80952454     109.46020508     109.72294617     109.73796082     110.12515259     109.07344055     108.29872131     108.01770782     107.51914978     107.47776794     107.28954315     107.08267212     107.20027924     106.98619080     106.75862122     106.44744110     107.01702118     106.91056824     106.15256500
         106.34165955     106.78622437     106.58478546     106.51461029     106.30171967     106.57923889     106.50508881     106.59790802     106.39687347     106.25641632     106.37034607     106.61521149     107.18712616     106.62561798     106.47193146     107.35100555     107.31143951     106.88151550     106.95115662     106.54937744
         106.02114105     107.20133972     106.25856018     106.52615356     106.41602325     105.74063873     105.69513702     105.84410095     105.56383514     105.53134918     105.54689789     106.13522339     106.84647369     105.93176270     106.72550964     106.09788513     106.11343384     105.67713928     105.53466797     105.68267822
         104.92639160     105.53794861     105.18064117     104.84815979     105.01005554     105.10922241     104.92127991     105.07238770     104.96025848     104.92436218     104.87155914     104.38976288     104.46018219     104.61669159     104.16753387     104.50229645     105.33334351     103.92546082     104.41706085     106.58804321
         105.52824402     105.59568024     106.08088684     105.06407928     104.97655487     109.67973328     109.36872864     108.94150543     109.66962433     110.30804443     110.39989471     110.41741943     110.04076385     109.90421295     109.90399933     109.70341492     109.11508179     109.49203491     110.06367493     108.67403412
         108.18234253     108.14327240     107.60165405     107.56262207     107.42390442     107.10592651     106.89336395     107.00644684     107.00705719     106.84832001     106.82472229     106.90088654     106.88234711     106.77989197     106.71994781     106.84652710     106.65038300     106.67789459     106.73423767     106.63493347
         106.60716248     106.39747620     106.40669250     106.35629272     106.59141541     106.60393524     106.41858673     106.59330750     106.21782684     106.55459595     106.33206940     107.01737976     106.98727417     106.40763855     107.15287781     107.29144287     106.79112244     107.22383118     107.28820801     107.31028748
         107.09011078     107.06473541     106.90984344     106.80784607     106.85604095     106.18194580     106.48621368     106.90448761     106.88469696     106.87779999     106.89374542     106.81744385     105.73373413     105.58081055     105.81412506     105.64472961     106.07070160     106.62174225     106.11755371     106.17058563
         105.28182983     105.03903198     104.78253174     104.82395935     104.82691956     104.92257690     104.87390900     105.21693420     105.12310028     104.87071991     105.39944458     104.94301605     104.81049347     104.70887756     104.65481567     104.63529205     104.60083771     103.90753174     104.57437897     103.85736084
         104.00193024     104.29993439     104.13134003     104.19468689     104.95912933     106.34538269     104.93122864     105.57022858     105.15866089     104.85378265     105.43070221     104.70125580     104.86064148     109.67308807     109.80860901     109.42427826     109.01634979     110.27408600     109.66244507     109.79718018
         109.50962067     110.40635681     109.65206909     109.77799225     109.32344055     109.41501617     109.48664856     108.91287231     109.17781067     108.55088043     108.28405762     108.05814362     107.97354126     106.73796082     107.03953552     107.91096497     107.67393494     107.24209595     106.85060883     107.23117065
         107.09994507     106.74414825     106.33820343     107.07106018     106.96561432     105.74667358     106.39048767     106.17669678     106.19945526     106.69555664     106.75527954     106.61623383     106.40794373     106.59266663     106.59102631     106.29048920     106.64505768     106.64878845     106.49313354     106.64340973
         106.65102386     106.57814789     106.60353851     106.64077759     106.65219879     106.64405060     106.71113586     106.38413239     106.46656036     106.50210571     106.67333221     106.37700653     106.50328064     106.67609406     106.67893982     106.67590332     106.70220947     106.79228210     106.77536011     106.65499115
         106.63794708     106.71635437     106.66844940     106.43202209     106.22111511     106.42990112     106.20716095     106.60466766     106.99825287     106.46025848     106.45603943     106.53829956     106.52948761     106.68070221     106.74346161     106.62289429     106.13079834     106.75142670     106.11920929     106.89739990
         106.40998840     106.08990479     105.52848816     106.20810699     106.42715454     105.38887024     105.92331696     105.39901733     105.18163300     105.34230804     105.09060669     105.17047119     105.49526215     105.08844757     105.28583527     106.81212616     106.86672211     106.66244507     106.77061462     106.68692780
         106.34480286     106.39607239     106.05020905     106.29013062     106.62642670     106.10217285     106.57883453     106.17148590     105.64524841     105.94340515     105.14074707     105.93663788     105.70882416     105.82572937     105.81076813     105.62570953     105.58998108     105.69348145     104.95769501     105.14067078
         105.43174744     106.25309753     105.87944794     106.83844757     105.20935822     104.55065155     104.77290344     104.31160736     104.50446320     104.96354675     105.00179291     104.84157562     105.66445160     105.55043030     105.68463135     106.69623566     106.56142426     104.73256683     104.44895172     104.90869141
         104.22029114     104.34722137     104.20309448     104.33705902     104.58452606     104.03804016     104.31233978     104.27294159     103.79217529     105.70045471     104.95771790     104.78829956     104.70061493     105.96224976     105.97203064     104.32823944     104.81314087     105.78744507     109.91429138     109.18466949
         109.32232666     108.90776062     109.56301117     109.41687775     109.64280701     108.66793823     109.07039642     108.87770844     109.47051239     109.31147766     109.32955170     109.18728638     108.84651947     109.00781250     108.23449707     107.60755157     107.93991852     107.82263947     107.29375458     107.65094757
         108.05488586     107.94443512     107.98637390     108.05928802     108.03773499     107.99271393     108.25536346     108.03865051     107.60497284     107.12882996     107.62014771     107.29217529     106.10301971     105.41647339     106.80017090     105.10428619     106.87998199     106.73695374     107.04718781     106.84906006
         106.62903595     106.36854553     106.81204987     106.74182129     106.82344818     106.80677795     106.71189880     106.63584137     106.78388977     106.71199799     106.24168396     106.59098816     106.58106232     106.59321594     106.54597473     106.54761505     106.50830841     106.65365601     106.53698730     106.51202393
         106.49425507     106.39443970     106.27809906     106.47331238     106.54042816     106.41351318     106.49152374     106.67575836     106.73297882     106.54450989     106.58706665     106.43866730     106.46134949     106.40525818     106.46519470     106.54708099     106.24675751     106.44670105     105.92115784     106.77799988
         106.83243561     106.52349091     106.63854218     106.79995728     106.74198914     106.74370575     106.76446533     105.91074371     106.15740204     105.34741211     105.84618378     106.55262756     106.64616394     106.21581268     106.31223297     106.73834991     106.68902588     106.73272705     106.29314423     106.26754761
         105.76078796     105.34606171     104.88334656     106.58516693     105.88206482     106.17432404     105.57668304     104.96887970     104.56713867     104.85853577     104.67204285     105.10388947     104.85928345     104.74391937     104.76881409     104.91055298     105.26287079     104.78269196     104.86126709     104.70167542
         104.72884369     104.64876556     104.60019684     104.66059875     104.72632599     104.58697510     104.66772461     105.96481323     106.49326324     105.84673309     106.43418884     105.89773560     104.72760010     106.13645172     105.10447693     105.57672882     106.39130402     105.48242950     106.23127747     106.19245911
         105.79570007     105.91905212     105.75901794     103.98848724     104.30323029     103.69979858     103.01169586     105.27101135     106.20174408     103.89244843     105.54167175     104.43328094     103.17549896     105.49139404     105.07032776     103.07555389     103.61277008     104.59931183     103.66722870     106.76585388
         104.73493958     103.71183777     104.39282227     104.27877045     104.30974579     104.02682495     104.04326630     104.69636536     105.87555695     104.31282043     104.77471161     106.62830353     106.13207245     105.27998352     104.43424225     105.18437958     104.09555054     104.65274048     104.05769348     104.37675476
         104.45346832     104.23160553     104.31860352     104.19213867     103.82641602     103.92233276     104.41066742     104.46735382     104.55149841     104.28137970     104.29158020     104.28579712     104.19886017     104.30979156     104.12195587     104.20766449     110.14052582     110.18568420     109.62487030     109.55091095
         109.41474152     108.97493744     108.50772095     109.14975739     109.78231049     108.86119080     109.06600952     109.20003510     109.03956604     109.01336670     107.59381866     109.25229645     108.20642853     107.71601105     108.23125458     107.72933960     107.95755005     107.31542206     107.75133514     107.34399414
         107.01784515     107.16245270     107.03581238     106.91779327     107.79834747     108.07652283     107.59709930     107.97071075     108.00421143     107.99694824     107.81391144     107.60446167     107.48201752     107.34304047     107.12522888     104.93399048     107.02411652     106.42526245     104.90553284     106.02561188
         107.17742157     106.85677338     106.81024170     106.78214264     106.44344330     107.15643311     107.26371765     106.77061462     106.64823914     106.37032318     105.45628357     106.01508331     105.13500977     106.78816223     106.81105042     106.52123260     106.82687378     106.81623840     106.70013428     106.83820343
         106.65814972     105.04170990     105.61153412     104.99781799     105.00836182     105.99049377     106.48907471     105.26934052     106.12342072     106.61132050     106.54045868     106.47002411     106.52239990     106.43756104     106.21780396     106.52323151     106.31937408     106.55349731     106.40582275     106.68813324
         106.34687805     106.44541931     106.44324493     106.31375885     106.54392242     106.06976318     105.91719818     105.97480011     105.81438446     105.87367249     105.72348785     105.76422882     105.78293610     106.43140411     106.31938171     106.67752075     106.55052185     106.09718323     106.04296875     106.34513855
         106.27340698     105.41005707     105.70806885     105.71154785     105.85333252     105.92642212     105.74295044     106.00156403     105.47340393     106.08680725     106.16916656     106.33187103     106.45133972     106.40316772     105.38359833     106.63522339     105.44585419     105.58555603     105.35108948     104.80764771
         104.61103058     104.82830811     104.59799957     104.75586700     104.66796875     104.02654266     103.71076965     103.70195770     103.09038544     104.27201080     104.61209106     103.47867584     104.33347321     104.56238556     104.52469635     104.52040100     104.45083618     104.50608063     104.62802124     104.41032410
         104.75748444     104.59930420     104.38609314     104.64308929     104.53903198     104.32752991     104.69188690     104.33342743     104.67940521     105.46456909     106.13964081     105.60285950     106.02951813     105.56790924     105.46205902     105.25339508     104.89875031     105.62558746     105.73461151     105.68373108
         105.61580658     105.01600647     104.55876160     104.62876892     104.81265259     105.76826477     106.26542664     105.76519012     106.50859833     106.65291595     105.33406830     106.83412933     106.29895020     105.69915009     106.74172974     106.02235413     106.92601013     106.50559235     105.75732422     106.11248779
         105.21952820     103.38034058     102.98046875     105.45981598     103.42788696     103.93615723     103.56950378     103.96865845     103.67196655     104.06011200     104.32295990     103.74521637     104.08887482     104.37556458     103.96104431     104.14157104     103.64334106     103.98464203     103.87772369     103.38295746
         103.44787598     104.01008606     104.16262054     103.73812103     103.83009338     103.72977448     104.20856476     103.89643860     104.16366577     104.25088501     104.27240753     104.19364929     104.23388672     104.20642090     105.00312805     111.58882141     110.83843231     110.04008484     109.85933685     108.37651062
         108.92892456     108.50811005     108.75254822     109.19454193     108.69225311     109.05340576     108.89160156     108.75366974     109.02203369     108.96389008     109.26474762     109.06833649     109.08934784     109.17633820     108.08847809     107.64801788     108.29741669     107.47447205     107.84696960     107.56490326
         107.46744537     107.32086182     107.09168243     106.98065948     107.16522217     107.11209106     107.59232330     107.98339081     107.95787048     108.45149231     107.72779083     107.58695984     107.67938995     107.58892059     107.50225067     107.55070496     107.55577087     107.03074646     106.50863647     107.47668457
         107.20771027     107.58248901     107.53945923     105.37506104     103.82515717     105.33130646     103.25511932     107.02386475     106.78838348     105.07774353     105.52589417     105.53361511     104.87171173     104.68659210     103.35272980     103.54051971     105.09301758     103.77709198     105.19978333     105.50604248
         104.93951416     106.49609375     106.20830536     104.69085693     104.65087128     102.98616791     102.93936920     104.69731140     104.95323181     102.93280029     103.34825134     104.84931183     104.40201569     105.79618073     105.17652130     103.40356445     102.93532562     104.86257172     104.30121613     104.85253143
         104.96938324     103.73719788     104.24019623     105.44546509     106.27151489     104.92845917     105.53545380     102.97988129     103.04747009     103.43230438     103.06960297     103.33372498     104.42098999     103.00545502     103.18447876     106.64848328     106.41522217     106.44339752     106.51766968     106.46201324
         106.73963928     106.58952332     106.65780640     105.52787781     106.31434631     104.67679596     106.11031342     106.50856781     106.32174683     106.35029602     105.77822113     106.69764709     106.56002808     106.59633636     106.49721527     106.44110870     106.43937683     106.52917480     106.60091400     106.29331207
         106.51258087     105.15868378     105.32589722     106.61600494     106.74128723     106.27085114     106.87766266     106.48429871     106.53820038     106.60974884     106.54230499     106.49671936     105.39834595     106.01173401     105.07026672     106.72373199     106.46954346     106.82263184     106.49916077     105.92005157