# File generated by Flopy version 3.3.3 on 06/14/2021 at 16:02:57.
BEGIN options
  DIGITS  9
END options

BEGIN continuous  FILEOUT  rch.csv
  rch  RCH  rch
END continuous  FILEOUT  rch.csv

