# File generated by Flopy version 3.3.3 on 06/14/2021 at 16:02:57.
BEGIN options
  BOUNDNAMES
  OBS6  FILEIN  sgn.ghb.obs
END options

BEGIN dimensions
  MAXBOUND  368
END dimensions

BEGIN period  1
    OPEN/CLOSE  'sgn.ghb_stress_period_data_1.txt'
END period  1

