# File generated by Flopy version 3.3.3 on 06/14/2021 at 16:02:56.
BEGIN options
  SAVE_FLOWS
  K33OVERK
END options

BEGIN griddata
  icelltype
    CONSTANT  0
  k  LAYERED
    OPEN/CLOSE  'sgn.k1.txt'  FACTOR  1.0
    OPEN/CLOSE  'sgn.k2.txt'  FACTOR  1.0
    OPEN/CLOSE  'sgn.k3.txt'  FACTOR  1.0
  k33
    CONSTANT       0.10000000
END griddata

