# File generated by Flopy version 3.3.3 on 06/14/2021 at 16:02:56.
BEGIN griddata
  strt  LAYERED
    INTERNAL  FACTOR  1.0
         113.71802521     113.69342804     113.86360931     113.79450989     113.47414398     113.10578156     113.58052063     112.75251770     113.19228363     112.81993103     112.97905731     113.00373840     112.98254395     112.27307892     111.86006927     111.89867401     112.13532257     111.23393250     110.44409180     110.58946228
         110.71840668     110.11258698     109.97789764     110.09033966     109.94697571     109.81637573     109.62843323     110.16931152     109.42649078     109.88087463     111.93951416     108.29206085     109.08211517     108.91932678     108.85663605     108.71915436     108.46423340     108.77657318     108.52822113     108.47356415
         108.58959198     110.08941650     109.77774048     112.81654358     113.25070953     113.29789734     113.65896606     112.57092285     112.94612122     112.64208984     112.22367096     112.26245117     112.82128906     112.94684601     113.02752686     112.96290588     112.07318878     111.72681427     111.59663391     111.57393646
         111.61734009     110.75196075     112.98231506     110.25565338     110.01717377     109.99846649     110.09152985     109.53257751     109.92722321     109.40180969     109.76217651     110.25906372     111.64080811     110.05462646     111.21607208     109.83403015     109.93824005     109.15357208     110.43358612     110.07746124
         109.62895203     108.69544983     108.78607941     108.21505737     108.14393616     108.02370453     108.08243561     108.48638916     108.52565765     113.36006927     113.53935242     113.64289093     113.37464905     112.87832642     112.53720856     112.22889709     112.15003967     111.91306305     112.08444977     112.09536743
         111.98316193     112.50563812     112.38037109     111.70478821     111.63159180     111.68934631     111.33075714     109.79236603     115.10173035     110.77124786     109.70471191     109.70351410     109.46174622     109.47594452     109.55033112     109.49732208     109.68952942     109.88304901     110.23429871     113.96634674
         111.08936310     109.06457520     109.86607361     108.54113770     108.91459656     107.91163635     108.04014587     108.53525543     109.13662720     109.54213715     108.94599152     107.91749573     108.15396881     108.52368927     107.82538605     113.14335632     112.73392487     113.14064789     113.02184296     112.58650208
         112.27764130     111.99983215     111.60640717     111.43457794     112.12055206     111.49736786     111.25152588     111.24744415     111.18210602     110.95298767     110.75059509     110.58631897     110.39437103     110.43141937     111.70188904     110.23017120     109.88820648     110.39660645     109.38996124     109.79206085
         109.79679871     109.71771240     109.91243744     110.05994415     109.91899109     115.23867798     110.31417847     108.24357605     108.63798523     108.02822113     108.40567780     108.06231689     108.16974640     108.02995300     107.98219299     108.70295715     108.41837311     107.90194702     108.59381104     109.55741119
         108.75978851     113.34347534     112.70538330     112.56319427     112.46963501     112.17322540     111.86589813     111.67779541     111.04918671     110.91047668     110.47934723     110.91523743     110.80153656     110.72682953     110.31252289     110.41236115     110.36089325     110.08430481     109.97545624     113.26091766
         109.25588226     109.58419037     108.80444336     109.40006256     109.29777527     109.69865417     109.46671295     109.66867828     109.48003387     109.76041412     109.91009521     111.87310028     107.60363770     107.94407654     108.25043488     107.64375305     107.70067596     108.02681732     107.94061279     107.84675598
         107.52551270     107.64347839     107.90209198     107.73715210     107.65975189     107.54167175     107.73851013     112.58794403     112.45240784     112.15496063     111.90830231     111.98398590     111.79119110     111.52504730     110.92565155     110.71350098     109.95645142     110.67490387     110.39044952     110.33702087
         110.33178711     110.27653503     110.20144653     109.98822021     116.26429749     114.50554657     109.14899445     108.98271942     108.92437744     107.90350342     109.00981140     109.38059998     109.34807587     110.14481354     109.53691864     109.47164154     109.72391510     110.35149384     107.99710846     107.64163971
         107.79576874     107.54289246     108.05409241     107.77214813     107.87119293     107.57401276     107.73726654     107.91943359     107.58340454     107.56303406     107.77671814     107.49782562     107.41670227     107.01035309     107.17045593     107.48990631     111.99095154     111.53736115     112.36158752     111.79032898
         111.12498474     111.36067963     111.09900665     110.76465607     110.87867737     110.66081238     110.35361481     110.15474701     110.32732391     110.31827545     110.29696655     110.07258606     109.93322754     114.48365021     112.34738922     108.71725464     108.75859833     108.79534149     108.10446930     107.86817169
         109.00812531     108.97666168     108.68128967     108.56346130     108.78773499     107.57078552     110.00837708     108.34374237     108.17825317     107.57271576     107.39953613     107.61702728     107.50867462     107.80767822     107.75129700     107.25507355     107.56143951     107.58618164     107.48033142     107.57894897
         106.82881165     106.66177368     106.79237366     106.76782990     106.88297272     112.42301941     111.98753357     111.44628143     110.57295227     111.68794250     110.30176544     110.11637878     110.89229584     110.58782959     110.44230652     110.36811829     110.25376892     110.25813293     110.32110596     110.32569885
         109.98838043     110.00891876     113.03942871     109.13211823     108.97649384     108.64066315     108.59888458     108.15955353     108.67845917     108.44496155     108.97948456     108.71453857     108.88604736     107.71517181     108.45389557     109.28626251     108.15329742     107.75646210     107.05947876     107.45228577
         107.73381805     107.56489563     107.44052887     107.29486847     107.30510712     107.30757904     106.46874237     106.54135895     106.53684235     106.55322266     106.47688293     111.29786682     111.42654419     111.65290833     111.66648102     111.55455017     111.39212799     110.56809998     110.81912231     110.84058380
         110.29872131     110.05200958     110.28348541     110.27825928     110.45191193     110.24423981     109.87139130     110.13681793     113.28127289     109.39025879     108.78186798     108.38252258     108.47258759     108.21181488     107.57157135     106.94093323     108.63523102     108.01628113     107.62376404     107.49947357
         107.63301849     107.86785126     109.60462952     106.69271088     106.92262268     107.47429657     107.02009583     106.93034363     106.79883575     106.96275330     107.21628571     106.94571686     106.24723053     106.24638367     106.32935333     106.30901337     106.54359436     110.95385742     110.75579071     111.66865540
         111.45765686     111.41977692     111.26448059     110.53316498     110.32106018     110.13616943     111.35399628     110.40563202     110.22991943     110.27721405     110.31291199     110.12551117     109.93012238     111.15176392     112.13991547     109.38682556     108.79319000     108.59695435     108.13204956     108.01429749
         107.78392792     107.29421997     107.50715637     107.99102020     107.36658478     107.66970062     107.46920013     107.95793152     113.99160004     106.53955841     106.57891083     107.39547729     106.55220032     107.73879242     107.07256317     107.01179504     106.81725311     106.49023438     106.05864716     106.05464935
         106.06859589     106.04421234     106.65161896     110.81363678     110.91364288     111.97460938     111.41500854     111.37097168     111.14038086     111.29854584     109.94615936     110.11932373     110.16420746     110.13165283     109.92614746     110.34449005     110.29563904     110.07205963     110.58834839     113.57814789
         109.98525238     108.23933411     108.51177979     108.42719269     107.85352325     107.33605194     107.86537933     107.55682373     107.33997345     108.33606720     107.75084686     107.40193176     107.81063843     107.67513275     108.28343201     107.95429993     108.06585693     108.30677032     107.34711456     107.75106812
         106.59117126     106.83346558     107.26757812     106.49839783     106.07092285     105.88570404     105.87377930     105.84816742     106.62994385     111.04505920     111.38056946     110.69873810     110.72727203     111.33502960     111.42222595     112.60061646     110.61230469     110.08338165     109.92633820     109.63611603
         110.14860535     110.08162689     110.18274689     109.97566986     112.82658386     111.50368500     109.72647095     108.24127197     108.15772247     108.09813690     107.68468475     107.55891418     107.52497864     107.24716187     107.14369965     107.19445801     107.76610565     107.51036072     107.88200378     107.86628723
         108.19886780     109.78646851     107.83852386     107.48939514     106.60484314     107.89998627     106.97810364     105.92844391     106.60514069     106.49678040     106.49668884     107.27530670     106.61320496     105.97487640     105.63551331     105.65095520     105.70981598     106.38338470     111.37419891     110.90595245
         111.25885773     110.55242157     110.93256378     110.76670074     111.36273193     110.51669312     110.44647217     110.49530029     107.93309784     109.96699524     109.54573059     109.62927246     109.68772125     110.35840607     109.74364471     109.37839508     108.23056030     108.53265381     107.91484070     107.41520691
         107.30808258     107.16611481     107.41963959     106.90232086     107.14893341     107.97827911     107.79053497     107.83323669     107.97097778     107.86689758     112.35905457     107.61052704     107.72716522     106.69377136     106.69029999     107.67514801     106.69837952     107.16611481     106.74141693     106.11315155
         105.42198944     105.40809631     105.49827576     105.97068024     110.74407959     110.74423981     111.15718842     110.45118713     111.20332336     111.49089050     110.48788452     110.31589508     110.37953186     110.14640045     110.38309479     110.68041229     110.13616180     109.76712799     109.77763367     110.27626801
         109.75003815     108.69194031     108.02241516     107.64177704     107.71806335     107.31048584     106.61595154     107.08421326     106.74281311     106.85553741     107.47973633     107.50639343     107.90855408     108.02399445     108.14307404     107.55908966     107.58849335     107.64437103     106.52687073     107.83277893
         108.31469727     107.42567444     107.71379089     108.17534637     107.88256073     108.05171204     107.89756775     107.97725677     107.91796875     107.85829926     107.82513428     109.43246460     110.85208130     108.39189911     110.18034363     108.20462799     108.10533905     108.34748840     108.09049988     108.31606293
         108.16151428     107.93191528     107.94868469     107.56687164     106.65960693     107.00840759     105.89692688     106.45342255     106.67940521     105.63254547     106.05797577     106.98104095     106.68447113     106.17297363     106.66452789     106.38581085     105.37540436     105.18294525     105.48979950     105.54526520
         110.27500916     110.94373322     110.60449982     110.13819122     110.97776031     111.78590393     111.76081848     110.99227142     109.74215698     109.33670044     109.61013031     109.85801697     109.97573090     111.18875885     110.48250580     110.36354065     109.02584076     108.24163818     107.56748962     107.38629913
         107.45992279     106.89553833     106.88558960     106.85988617     106.47687531     106.09339142     105.92823029     106.64531708     107.38492584     106.16284943     107.01802826     106.55648041     106.71828461     107.72878265     107.38727570     106.92650604     106.83259583     107.64872742     107.52555847     106.70476532
         107.51955414     107.67765045     107.87153625     106.73979187     107.07093811     107.94942474     107.89281464     107.56060028     108.01968384     107.17084503     107.72563934     107.79362488     107.95216370     108.07636261     108.77568054     107.72299194     107.73612213     108.18011475     107.85404968     107.48374939
         106.48214722     107.43339539     106.93753052     105.97997284     105.02106476     105.84911346     105.62436676     105.46276093     105.53593445     105.58055115     105.80639648     105.70619965     105.50865173     106.48523712     106.69773102     105.24176788     105.49752808     107.56706238     107.21482086     106.28908539
         107.15904236     106.27935791     105.99219513     107.02455139     105.94985199     105.59881592     105.47303772     105.35258484     110.29618835     109.49309540     109.92954254     110.33098602     110.28733063     111.09072113     110.32584381     110.01876831     110.10678864     110.00285339     109.55062103     109.61877441
         109.70201111     110.27542877     109.81740570     108.90313721     108.43517303     107.94910431     107.57265472     107.56009674     107.25028992     107.22850037     106.94543457     106.75295258     106.88097382     107.02991486     106.44545746     106.15858459     106.74304962     106.57099915     106.44026947     106.59809875
         106.19744110     106.59890747     106.21961975     106.64068604     107.02217865     107.00257874     106.56084442     106.71177673     107.44049072     107.57264709     107.31124878     107.45220947     107.08620453     105.83380127     107.34050751     106.43922424     107.64234924     107.85562897     106.13197327     106.60578156
         107.46710968     106.00103760     106.57119751     105.74013519     105.18608093     106.41638184     105.45479584     105.96035767     107.02854919     106.27972412     106.90992737     106.14955139     106.14107513     105.04114532     106.20104980     105.71783447     104.76216888     104.83031464     104.96115875     104.89013672
         104.64294434     104.68125916     104.95182800     105.12734222     104.60027313     104.67715454     105.01737213     104.44427490     105.07898712     105.89230347     104.53719330     104.72351837     106.89576721     106.02648163     105.63133240     106.70316315     105.72152710     105.98044586     105.49875641     105.25620270
         105.54567719     105.31810760     108.09142303     110.03622437     109.41539764     109.04479218     110.00819397     110.60125732     110.25745392     110.33863831     110.08085632     109.60041046     109.86906433     109.58764648     109.70991516     110.29045868     109.10506439     108.50071716     108.19995880     107.87380219
         107.55663300     107.35527039     106.99470520     107.17745209     107.14964294     107.08117676     106.97928619     107.11936188     107.00348663     106.82916260     106.58720398     106.90560150     106.86290741     106.44112396     106.52393341     106.74539185     106.74239349     106.48161316     106.27722931     106.66284180
         106.30620575     106.24172211     106.58118439     106.49109650     106.59722900     106.67382812     107.05619049     106.10205841     106.96495056     106.89801788     107.17599487     107.23748016     107.30735779     106.31695557     106.11376190     106.63963318     105.76461029     105.83488464     105.61305237     106.30263519
         105.64196777     105.53820038     105.86791992     105.55715179     105.87951660     106.87279510     105.85489655     106.71472168     105.35076141     105.73117065     105.62533569     105.28987122     104.99074554     105.17873383     105.02590942     104.98434448     105.08772278     104.95387268     104.96278381     104.88669586
         104.84696198     104.91870880     104.62114716     104.76902008     104.61535645     104.23011780     103.91779327     104.03837585     103.95613098     104.55184937     105.69667053     104.31715393     105.06405640     106.10869598     105.19638824     106.35925293     105.30298615     104.91318512     104.98888397     109.62878418
         109.24636841     109.50965118     109.68756866     109.66294861     109.83573914     110.13791656     109.90630341     109.05399323     109.81145477     109.85439301     109.62668610     109.42221069     110.59712219     109.05413055     108.76515961     108.38455963     108.15316010     107.56719208     107.60960388     107.30905151
         107.00417328     106.90302277     106.88563538     106.87962341     106.67215729     106.86691284     106.80208588     106.46705627     106.19911957     106.77118683     106.74070740     106.51028442     106.67770386     106.66181183     106.32513428     106.72408295     106.64075470     106.52325439     106.49600220     106.56943512
         106.68763733     106.42847443     106.64660645     106.69251251     106.39193726     106.47891235     106.44838715     106.31336212     106.26490784     106.54924774     106.58615875     106.46768951     106.39292908     106.53324890     106.19033813     106.95958710     107.29533386     106.64693451     107.16633606     106.28913116
         106.79649353     107.29019165     106.94826508     106.66027832     106.11849976     106.97641754     106.89568329     106.65447235     106.61694336     105.68183136     105.94304657     106.81800079     106.88014221     106.66712952     106.84291840     106.88728333     105.92926788     106.81556702     106.51450348     106.63813019
         106.21936798     105.84189606     105.61827850     106.04495239     105.68876648     106.18590546     106.54219818     104.95697021     105.95999146     104.57375336     104.81341553     104.76377869     104.77601624     105.03483582     105.05954742     105.42465210     105.12044525     105.14071655     104.92829132     104.68188477
         105.48560333     104.67630768     104.65168762     104.59883118     104.51000214     104.40033722     103.89044952     104.11814880     103.99976349     104.05704498     104.21186829     104.74605560     104.12078857     105.48994446     105.66354370     105.23394012     105.29178619     105.78215790     104.73311615     104.82033539
         110.18632507     109.83442688     108.20948029     109.60663605     109.55696106     109.47257233     109.42124176     109.20690918     109.39546204     109.68367767     109.69714355     109.42417145     109.34826660     109.48588562     108.75624847     109.04295349     109.11647797     108.52334595     108.01890564     107.43241882
         108.04772186     107.77578735     107.72720337     107.99550629     107.51113892     107.33828735     107.87223053     107.52919769     107.07350159     107.02942657     107.13067627     106.58107758     106.66925812     105.84545135     106.52204132     106.95837402     105.87651062     106.66204834     106.62132263     106.61286926
         106.58844757     106.40712738     106.26679993     106.16712952     106.63217163     106.63737488     106.63211060     106.62585449     106.62044525     106.59946442     106.64201355     106.58348846     106.56843567     106.55258942     106.59156799     106.45879364     106.49617004     106.62273407     106.57019043     106.63621521
         106.68953705     106.57791901     106.66130829     106.75177765     106.72879791     106.64507294     106.71984863     106.59734344     106.69954681     106.83240509     106.83560181     106.71062469     106.69947815     106.67581940     106.69160461     106.67391968     106.64921570     106.49723816     106.36476135     106.62825775
         106.66672516     106.76269531     106.70941162     106.76164246     106.77416229     106.72039032     106.75662994     106.74952698     106.66795349     106.43430328     106.42195892     106.67921448     106.31871796     105.84005737     105.35245514     105.55278778     105.15295410     106.67460632     106.09799194     106.03755188
         105.28912354     105.31301117     104.97914886     104.90143585     104.80865479     105.17641449     105.55699158     105.14487457     105.37004852     106.49093628     106.78230286     106.13268280     106.58129883     104.99219513     105.15983582     104.83866882     105.04181671     105.93514252     106.56141663     105.74164581
         106.40471649     106.48143768     105.91201782     106.27980804     105.52668762     105.76628876     105.81365204     105.37864685     105.50918579     105.96038818     105.15081024     106.05175781     104.90788269     104.61709595     104.80014801     103.82690430     103.53270721     105.41149139     106.41983795     105.22513580
         105.96901703     104.19589996     106.02759552     106.87900543     105.67156982     104.33567810     105.21482849     104.27880859     104.59486389     104.76306152     104.32891083     104.78314209     105.25210571     106.45625305     105.82999420     106.61528015     106.54263306     105.03507233     106.60958099     105.47113800
         104.32350159     104.23889160     104.09872437     104.36917114     104.57112122     104.12168884     104.48083496     104.48711395     103.99371338     105.00587463     103.65283966     104.39307404     104.75656891     104.68148041     104.61219025     104.30124664     104.55131531     105.73583221     110.66896820     109.70012665
         107.83777618     108.92153931     109.68428802     109.19922638     108.85246277     109.50779724     109.27797699     109.45731354     109.18449402     109.25034332     109.30260468     109.21784210     109.17932129     109.23481750     108.85354614     107.91404724     107.45951080     107.43711090     107.43401337     107.02786255
         107.83248138     108.05241394     107.22279358     107.74536896     108.10415649     108.27471161     108.09088898     108.08361053     108.14218903     107.69942474     108.04442596     107.51818848     107.30033112     106.16504669     107.36577606     107.36168671     104.46383667     107.01386261     106.61071777     107.12954712
         106.81759644     106.82151031     106.85556030     106.79465485     106.81466675     106.79315186     106.81014252     106.62010956     106.57711029     106.76271820     106.67623138     106.49841309     106.43792725     106.63014984     106.54992676     106.80685425     106.72846985     106.84967804     106.68805695     106.66073608
         106.55669403     106.57047272     106.53266144     106.57914734     106.54429626     106.49575043     106.42666626     106.40514374     106.47795868     106.45290375     106.50837708     106.41599274     106.25417328     106.51548767     106.26400757     106.20442200     106.08677673     106.06112671     105.87804413     106.54474640
         106.48474884     106.50624084     106.18887329     106.26251984     106.34893036     105.87995148     105.85137177     106.24516296     105.90258026     105.83016968     105.73743439     105.37357330     105.57164764     105.54119873     105.76061249     106.60836792     106.72293854     106.30009460     106.55519104     106.72261810
         106.40180969     106.44749451     105.80590820     105.93577576     106.12229919     105.86882782     105.73774719     105.96835327     105.50717926     105.32436371     105.09682465     105.40267944     104.65694427     105.13005829     104.59957123     104.71147156     104.79499817     104.67735291     104.69513702     104.84203339
         104.65595245     104.90375519     104.64021301     104.62512207     104.56403351     104.53915405     104.49600220     104.75128174     104.73655701     104.62996674     104.61850739     105.39274597     106.33111572     105.43106079     106.15615845     104.55339050     104.59042358     104.45965576     104.55525970     105.41513824
         106.18140411     105.38800049     106.10691071     106.27985382     105.45285034     106.17764282     105.91544342     104.14588165     102.86861420     105.23817444     104.26081085     105.83641052     105.67795563     105.42144775     105.11558533     105.66770935     105.77272034     105.59648895     106.24810028     103.00778961
         104.25945282     103.47267914     103.45122528     104.60073853     105.63997650     104.60810852     106.75188446     106.29302979     102.87396240     104.63048553     104.10765076     103.16752625     103.93955231     104.09591675     104.41038513     103.66498566     104.08257294     104.94706726     105.88314819     104.37834930
         104.52295685     104.81985474     104.94191742     104.05619049     104.05545807     104.20289612     104.21932983     103.90248108     104.07763672     104.35437775     103.90991974     104.23358154     103.86312866     104.36297607     104.31070709     104.23097229     104.25399017     104.30792236     104.32780457     104.28176880
         104.28858948     104.26197815     104.27829742     110.94364166     110.44937897     110.08431244     109.52423096     109.68537140     109.15950775     108.55610657     108.93939209     108.81589508     109.52758789     108.16152954     109.00377655     109.06681824     109.10854340     108.67236328     109.11078644     109.24839783
         108.36494446     109.12275696     108.10963440     107.71302032     107.75454712     107.60922241     107.90410614     107.30709839     107.04223633     107.63758850     107.09565735     106.96405029     107.63043976     106.91794586     107.42442322     108.00128174     107.94366455     108.01814270     107.80431366     107.72009277
         107.51620483     107.56352997     106.78012085     105.87776947     104.57424927     106.42872620     107.00814819     105.66171265     107.30876923     105.41142273     105.58436584     105.89524841     103.49932098     103.83601379     106.61954498     106.02267456     106.49365234     105.49855804     105.89344025     106.20890808
         105.07196045     104.99950409     105.74565887     105.21840668     103.90994263     104.09564972     104.96582794     104.96751404     104.41773224     104.89308929     106.62672424     106.76133728     105.09894562     106.20202637     106.49002838     106.48820496     106.56883240     106.44604492     105.24037933     106.09159851
         105.32666016     106.18731689     106.72797394     106.43238068     106.63713837     106.49098969     106.53042603     106.44321442     106.30679321     106.45027161     106.19889832     105.99509430     106.55265808     106.46633911     106.28285980     106.59391022     106.47728729     106.70175171     106.73114777     106.58257294
         106.68921661     106.54058838     105.86676025     105.90130615     106.28808594     106.18193054     105.93381500     105.94609070     106.16106415     106.26552582     106.40967560     106.39152527     106.50689697     106.48250580     106.38888550     106.45790100     106.50981140     106.51437378     106.12277985     105.53660583
         106.51438904     105.62821960     104.67430878     104.04942322     103.92461395     103.23960114     106.65617371     105.57227325     106.43361664     105.55471039     103.76699066     103.06947327     103.81772614     103.13439178     104.53580475     104.70220947     103.81900787     104.43463135     104.54407501     104.38903046
         104.65614319     104.46225739     103.16757202     103.75900269     103.10889435     103.28164673     104.40257263     104.66783142     103.60192108     104.37226105     104.35797119     104.48010254     104.31787872     104.61212158     105.37985229     106.01673126     105.39052582     105.92229462     104.41059875     104.58261871
         104.71054840     104.89394379     105.55537415     105.79593658     105.61248779     105.46104431     105.19582367     104.69721222     104.99829865     104.52404022     105.63134003     106.39203644     105.68484497     106.78567505     104.83638763     104.88754272     104.72266388     105.36794281     106.09800720     106.95484924
         106.60845947     106.77517700     106.87743378     106.15712738     106.37891388     105.77536011     105.35552216     106.05973816     105.12413788     105.85478210     104.92810822     105.27657318     103.14400482     103.95184326     104.50959015     103.93891907     103.68340302     103.74620056     103.68702698     103.63062286
         104.16464996     104.15330505     103.95272064     104.02757263     103.80948639     103.57106018     103.50685120     103.05661774     103.57566833     103.80337524     103.27044678     103.62833405     103.92988586     103.68146515     103.88785553     104.04748535     104.16963959     104.21061707     104.12506866     104.15739441
         104.22946167     104.82938385     104.96214294     111.13710785     111.21277618     110.62618256     110.03186035     109.80554962     109.37585449     108.88362885     108.66011810     108.77573395     109.04380798     108.78646088     108.77249908     108.71286011     109.01016235     108.76446533     108.98038483     109.15706635
         108.95391083     108.76545715     109.11840057     108.44158173     109.24115753     108.29366302     107.51815033     107.56371307     107.59494019     107.48821259     107.45658112     107.15479279     107.40688324     107.17919159     107.12010193     107.84535217     106.94639587     107.45211792     108.33473206     107.75026703