# File generated by Flopy version 3.3.3 on 06/14/2021 at 16:02:57.
BEGIN options
  DIGITS  9
  PRINT_INPUT
END options

BEGIN continuous  FILEOUT  ghb.csv
  GHB1  GHB  GHB1
  GHB3  GHB  GHB3
  GHB1  GHB  GHB1
  GHB3  GHB  GHB3
  GHB1  GHB  GHB1
  GHB3  GHB  GHB3
  GHB1  GHB  GHB1
  GHB3  GHB  GHB3
  GHB1  GHB  GHB1
  GHB3  GHB  GHB3
  GHB1  GHB  GHB1
  GHB3  GHB  GHB3
  GHB1  GHB  GHB1
  GHB3  GHB  GHB3
  GHB1  GHB  GHB1
  GHB3  GHB  GHB3
  GHB1  GHB  GHB1
  GHB3  GHB  GHB3
  GHB1  GHB  GHB1
  GHB3  GHB  GHB3
  GHB1  GHB  GHB1
  GHB3  GHB  GHB3
  GHB1  GHB  GHB1
  GHB3  GHB  GHB3
  GHB1  GHB  GHB1
  GHB3  GHB  GHB3
  GHB1  GHB  GHB1
  GHB3  GHB  GHB3
  GHB1  GHB  GHB1
  GHB3  GHB  GHB3
  GHB1  GHB  GHB1
  GHB3  GHB  GHB3
  GHB1  GHB  GHB1
  GHB3  GHB  GHB3
  GHB1  GHB  GHB1
  GHB3  GHB  GHB3
  GHB1  GHB  GHB1
  GHB3  GHB  GHB3
  GHB1  GHB  GHB1
  GHB3  GHB  GHB3
  GHB1  GHB  GHB1
  GHB3  GHB  GHB3
  GHB1  GHB  GHB1
  GHB3  GHB  GHB3
  GHB1  GHB  GHB1
  GHB3  GHB  GHB3
  GHB1  GHB  GHB1
  GHB3  GHB  GHB3
  GHB1  GHB  GHB1
  GHB3  GHB  GHB3
  GHB1  GHB  GHB1
  GHB3  GHB  GHB3
  GHB1  GHB  GHB1
  GHB3  GHB  GHB3
  GHB1  GHB  GHB1
  GHB3  GHB  GHB3
  GHB1  GHB  GHB1
  GHB3  GHB  GHB3
  GHB1  GHB  GHB1
  GHB3  GHB  GHB3
  GHB1  GHB  GHB1
  GHB3  GHB  GHB3
  GHB1  GHB  GHB1
  GHB3  GHB  GHB3
  GHB1  GHB  GHB1
  GHB3  GHB  GHB3
  GHB1  GHB  GHB1
  GHB3  GHB  GHB3
  GHB1  GHB  GHB1
  GHB3  GHB  GHB3
  GHB1  GHB  GHB1
  GHB3  GHB  GHB3
  GHB1  GHB  GHB1
  GHB3  GHB  GHB3
  GHB1  GHB  GHB1
  GHB3  GHB  GHB3
  GHB1  GHB  GHB1
  GHB3  GHB  GHB3
  GHB1  GHB  GHB1
  GHB3  GHB  GHB3
  GHB1  GHB  GHB1
  GHB3  GHB  GHB3
  GHB1  GHB  GHB1
  GHB3  GHB  GHB3
  GHB1  GHB  GHB1
  GHB3  GHB  GHB3
  GHB1  GHB  GHB1
  GHB3  GHB  GHB3
  GHB1  GHB  GHB1
  GHB3  GHB  GHB3
  GHB1  GHB  GHB1
  GHB3  GHB  GHB3
  GHB1  GHB  GHB1
  GHB3  GHB  GHB3
  GHB1  GHB  GHB1
  GHB3  GHB  GHB3
  GHB1  GHB  GHB1
  GHB3  GHB  GHB3
  GHB1  GHB  GHB1
  GHB3  GHB  GHB3
  GHB1  GHB  GHB1
  GHB3  GHB  GHB3
  GHB1  GHB  GHB1
  GHB3  GHB  GHB3
  GHB1  GHB  GHB1
  GHB3  GHB  GHB3
  GHB1  GHB  GHB1
  GHB3  GHB  GHB3
  GHB1  GHB  GHB1
  GHB3  GHB  GHB3
  GHB1  GHB  GHB1
  GHB3  GHB  GHB3
  GHB1  GHB  GHB1
  GHB3  GHB  GHB3
  GHB1  GHB  GHB1
  GHB3  GHB  GHB3
  GHB1  GHB  GHB1
  GHB3  GHB  GHB3
  GHB1  GHB  GHB1
  GHB3  GHB  GHB3
  GHB1  GHB  GHB1
  GHB3  GHB  GHB3
  GHB1  GHB  GHB1
  GHB3  GHB  GHB3
  GHB1  GHB  GHB1
  GHB3  GHB  GHB3
  GHB1  GHB  GHB1
  GHB3  GHB  GHB3
  GHB1  GHB  GHB1
  GHB3  GHB  GHB3
  GHB1  GHB  GHB1
  GHB3  GHB  GHB3
  GHB1  GHB  GHB1
  GHB3  GHB  GHB3
  GHB1  GHB  GHB1
  GHB3  GHB  GHB3
  GHB1  GHB  GHB1
  GHB3  GHB  GHB3
  GHB1  GHB  GHB1
  GHB3  GHB  GHB3
  GHB1  GHB  GHB1
  GHB3  GHB  GHB3
  GHB1  GHB  GHB1
  GHB3  GHB  GHB3
  GHB1  GHB  GHB1
  GHB3  GHB  GHB3
  GHB1  GHB  GHB1
  GHB3  GHB  GHB3
  GHB1  GHB  GHB1
  GHB3  GHB  GHB3
  GHB1  GHB  GHB1
  GHB3  GHB  GHB3
  GHB1  GHB  GHB1
  GHB3  GHB  GHB3
  GHB1  GHB  GHB1
  GHB3  GHB  GHB3
  GHB1  GHB  GHB1
  GHB3  GHB  GHB3
  GHB1  GHB  GHB1
  GHB3  GHB  GHB3
  GHB1  GHB  GHB1
  GHB3  GHB  GHB3
  GHB1  GHB  GHB1
  GHB3  GHB  GHB3
  GHB1  GHB  GHB1
  GHB3  GHB  GHB3
  GHB1  GHB  GHB1
  GHB3  GHB  GHB3
  GHB1  GHB  GHB1
  GHB3  GHB  GHB3
  GHB1  GHB  GHB1
  GHB3  GHB  GHB3
  GHB1  GHB  GHB1
  GHB3  GHB  GHB3
  GHB1  GHB  GHB1
  GHB3  GHB  GHB3
  GHB1  GHB  GHB1
  GHB3  GHB  GHB3
  GHB1  GHB  GHB1
  GHB3  GHB  GHB3
  GHB1  GHB  GHB1
  GHB3  GHB  GHB3
  GHB1  GHB  GHB1
  GHB3  GHB  GHB3
  GHB1  GHB  GHB1
  GHB3  GHB  GHB3
  GHB1  GHB  GHB1
  GHB3  GHB  GHB3
  GHB1  GHB  GHB1
  GHB3  GHB  GHB3
  GHB1  GHB  GHB1
  GHB3  GHB  GHB3
  GHB1  GHB  GHB1
  GHB3  GHB  GHB3
  GHB1  GHB  GHB1
  GHB3  GHB  GHB3
  GHB1  GHB  GHB1
  GHB3  GHB  GHB3
  GHB1  GHB  GHB1
  GHB3  GHB  GHB3
  GHB1  GHB  GHB1
  GHB3  GHB  GHB3
  GHB1  GHB  GHB1
  GHB3  GHB  GHB3
  GHB1  GHB  GHB1
  GHB3  GHB  GHB3
  GHB1  GHB  GHB1
  GHB3  GHB  GHB3
  GHB1  GHB  GHB1
  GHB3  GHB  GHB3
  GHB1  GHB  GHB1
  GHB3  GHB  GHB3
  GHB1  GHB  GHB1
  GHB3  GHB  GHB3
  GHB1  GHB  GHB1
  GHB3  GHB  GHB3
  GHB1  GHB  GHB1
  GHB3  GHB  GHB3
  GHB1  GHB  GHB1
  GHB3  GHB  GHB3
  GHB1  GHB  GHB1
  GHB3  GHB  GHB3
  GHB1  GHB  GHB1
  GHB3  GHB  GHB3
  GHB1  GHB  GHB1
  GHB3  GHB  GHB3
  GHB1  GHB  GHB1
  GHB3  GHB  GHB3
  GHB1  GHB  GHB1
  GHB3  GHB  GHB3
  GHB1  GHB  GHB1
  GHB3  GHB  GHB3
  GHB1  GHB  GHB1
  GHB3  GHB  GHB3
  GHB1  GHB  GHB1
  GHB3  GHB  GHB3
  GHB1  GHB  GHB1
  GHB3  GHB  GHB3
  GHB1  GHB  GHB1
  GHB3  GHB  GHB3
  GHB1  GHB  GHB1
  GHB3  GHB  GHB3
  GHB1  GHB  GHB1
  GHB3  GHB  GHB3
  GHB1  GHB  GHB1
  GHB3  GHB  GHB3
  GHB1  GHB  GHB1
  GHB3  GHB  GHB3
  GHB1  GHB  GHB1
  GHB3  GHB  GHB3
  GHB1  GHB  GHB1
  GHB3  GHB  GHB3
  GHB1  GHB  GHB1
  GHB3  GHB  GHB3
  GHB1  GHB  GHB1
  GHB3  GHB  GHB3
  GHB1  GHB  GHB1
  GHB3  GHB  GHB3
  GHB1  GHB  GHB1
  GHB3  GHB  GHB3
  GHB1  GHB  GHB1
  GHB3  GHB  GHB3
  GHB1  GHB  GHB1
  GHB3  GHB  GHB3
  GHB1  GHB  GHB1
  GHB3  GHB  GHB3
  GHB1  GHB  GHB1
  GHB3  GHB  GHB3
  GHB1  GHB  GHB1
  GHB3  GHB  GHB3
  GHB1  GHB  GHB1
  GHB3  GHB  GHB3
  GHB1  GHB  GHB1
  GHB3  GHB  GHB3
  GHB1  GHB  GHB1
  GHB3  GHB  GHB3
  GHB1  GHB  GHB1
  GHB3  GHB  GHB3
  GHB1  GHB  GHB1
  GHB3  GHB  GHB3
  GHB1  GHB  GHB1
  GHB3  GHB  GHB3
  GHB1  GHB  GHB1
  GHB3  GHB  GHB3
  GHB1  GHB  GHB1
  GHB3  GHB  GHB3
  GHB1  GHB  GHB1
  GHB3  GHB  GHB3
  GHB1  GHB  GHB1
  GHB3  GHB  GHB3
  GHB1  GHB  GHB1
  GHB3  GHB  GHB3
  GHB1  GHB  GHB1
  GHB3  GHB  GHB3
  GHB1  GHB  GHB1
  GHB3  GHB  GHB3
  GHB1  GHB  GHB1
  GHB3  GHB  GHB3
  GHB1  GHB  GHB1
  GHB3  GHB  GHB3
  GHB1  GHB  GHB1
  GHB3  GHB  GHB3
  GHB1  GHB  GHB1
  GHB3  GHB  GHB3
  GHB1  GHB  GHB1
  GHB3  GHB  GHB3
  GHB1  GHB  GHB1
  GHB3  GHB  GHB3
  GHB1  GHB  GHB1
  GHB3  GHB  GHB3
  GHB1  GHB  GHB1
  GHB3  GHB  GHB3
  GHB1  GHB  GHB1
  GHB3  GHB  GHB3
  GHB1  GHB  GHB1
  GHB3  GHB  GHB3
  GHB1  GHB  GHB1
  GHB3  GHB  GHB3
  GHB1  GHB  GHB1
  GHB3  GHB  GHB3
  GHB1  GHB  GHB1
  GHB3  GHB  GHB3
  GHB1  GHB  GHB1
  GHB3  GHB  GHB3
  GHB1  GHB  GHB1
  GHB3  GHB  GHB3
  GHB1  GHB  GHB1
  GHB3  GHB  GHB3
  GHB1  GHB  GHB1
  GHB3  GHB  GHB3
  GHB1  GHB  GHB1
  GHB3  GHB  GHB3
  GHB1  GHB  GHB1
  GHB3  GHB  GHB3
  GHB1  GHB  GHB1
  GHB3  GHB  GHB3
  GHB1  GHB  GHB1
  GHB3  GHB  GHB3
  GHB1  GHB  GHB1
  GHB3  GHB  GHB3
  GHB1  GHB  GHB1
  GHB3  GHB  GHB3
  GHB1  GHB  GHB1
  GHB3  GHB  GHB3
  GHB1  GHB  GHB1
  GHB3  GHB  GHB3
  GHB1  GHB  GHB1
  GHB3  GHB  GHB3
  GHB1  GHB  GHB1
  GHB3  GHB  GHB3
  GHB1  GHB  GHB1
  GHB3  GHB  GHB3
  GHB1  GHB  GHB1
  GHB3  GHB  GHB3
  GHB1  GHB  GHB1
  GHB3  GHB  GHB3
  GHB1  GHB  GHB1
  GHB3  GHB  GHB3
  GHB1  GHB  GHB1
  GHB3  GHB  GHB3
  GHB1  GHB  GHB1
  GHB3  GHB  GHB3
  GHB1  GHB  GHB1
  GHB3  GHB  GHB3
  GHB1  GHB  GHB1
  GHB3  GHB  GHB3
  GHB1  GHB  GHB1
  GHB3  GHB  GHB3
END continuous  FILEOUT  ghb.csv

