# File generated by Flopy version 3.3.3 on 06/14/2021 at 16:02:57.
BEGIN options
  BOUNDNAMES
  OBS6  FILEIN  sgn2.drn.obs
END options

BEGIN dimensions
  MAXBOUND  5167
END dimensions

BEGIN period  1
  1 1     113.71802521   10000.00000000  surf-drn
  1 2     113.69342804   10000.00000000  surf-drn
  1 3     113.86360931   10000.00000000  surf-drn
  1 4     113.79450989   10000.00000000  surf-drn
  1 5     113.47414398   10000.00000000  surf-drn
  1 6     113.10578156   10000.00000000  surf-drn
  1 7     113.58052063   10000.00000000  surf-drn
  1 8     112.75251770   10000.00000000  surf-drn
  1 9     113.19228363   10000.00000000  surf-drn
  1 10     112.81993103   10000.00000000  surf-drn
  1 11     112.97905731   10000.00000000  surf-drn
  1 12     113.00373840   10000.00000000  surf-drn
  1 13     112.98254395   10000.00000000  surf-drn
  1 14     112.27307892   10000.00000000  surf-drn
  1 15     111.86006927   10000.00000000  surf-drn
  1 16     111.89867401   10000.00000000  surf-drn
  1 17     112.13532257   10000.00000000  surf-drn
  1 18     111.23393250   10000.00000000  surf-drn
  1 19     110.44409180   10000.00000000  surf-drn
  1 20     110.58946228   10000.00000000  surf-drn
  1 21     110.71840668   10000.00000000  surf-drn
  1 22     110.11258698   10000.00000000  surf-drn
  1 23     109.97789764   10000.00000000  surf-drn
  1 24     110.09033966   10000.00000000  surf-drn
  1 25     109.94697571   10000.00000000  surf-drn
  1 26     109.81637573   10000.00000000  surf-drn
  1 27     109.62843323   10000.00000000  surf-drn
  1 28     110.16931152   10000.00000000  surf-drn
  1 29     109.42649078   10000.00000000  surf-drn
  1 30     109.88087463   10000.00000000  surf-drn
  1 31     111.93951416   10000.00000000  surf-drn
  1 32     108.29206085   10000.00000000  surf-drn
  1 33     109.08211517   10000.00000000  surf-drn
  1 34     108.91932678   10000.00000000  surf-drn
  1 35     108.85663605   10000.00000000  surf-drn
  1 36     108.71915436   10000.00000000  surf-drn
  1 37     108.46423340   10000.00000000  surf-drn
  1 38     108.77657318   10000.00000000  surf-drn
  1 39     108.52822113   10000.00000000  surf-drn
  1 40     108.47356415   10000.00000000  surf-drn
  1 41     108.58959198   10000.00000000  surf-drn
  1 42     110.08941650   10000.00000000  surf-drn
  1 43     109.77774048   10000.00000000  surf-drn
  1 44     112.81654358   10000.00000000  surf-drn
  1 45     113.25070953   10000.00000000  surf-drn
  1 46     113.29789734   10000.00000000  surf-drn
  1 47     113.65896606   10000.00000000  surf-drn
  1 48     112.57092285   10000.00000000  surf-drn
  1 49     112.94612122   10000.00000000  surf-drn
  1 50     112.64208984   10000.00000000  surf-drn
  1 51     112.22367096   10000.00000000  surf-drn
  1 52     112.26245117   10000.00000000  surf-drn
  1 53     112.82128906   10000.00000000  surf-drn
  1 54     112.94684601   10000.00000000  surf-drn
  1 55     113.02752686   10000.00000000  surf-drn
  1 56     112.96290588   10000.00000000  surf-drn
  1 57     112.07318878   10000.00000000  surf-drn
  1 58     111.72681427   10000.00000000  surf-drn
  1 59     111.59663391   10000.00000000  surf-drn
  1 60     111.57393646   10000.00000000  surf-drn
  1 61     111.61734009   10000.00000000  surf-drn
  1 62     110.75196075   10000.00000000  surf-drn
  1 63     112.98231506   10000.00000000  surf-drn
  1 64     110.25565338   10000.00000000  surf-drn
  1 65     110.01717377   10000.00000000  surf-drn
  1 66     109.99846649   10000.00000000  surf-drn
  1 67     110.09152985   10000.00000000  surf-drn
  1 68     109.53257751   10000.00000000  surf-drn
  1 69     109.92722321   10000.00000000  surf-drn
  1 70     109.40180969   10000.00000000  surf-drn
  1 71     109.76217651   10000.00000000  surf-drn
  1 72     110.25906372   10000.00000000  surf-drn
  1 73     111.64080811   10000.00000000  surf-drn
  1 74     110.05462646   10000.00000000  surf-drn
  1 75     111.21607208   10000.00000000  surf-drn
  1 76     109.83403015   10000.00000000  surf-drn
  1 77     109.93824005   10000.00000000  surf-drn
  1 78     109.15357208   10000.00000000  surf-drn
  1 79     110.43358612   10000.00000000  surf-drn
  1 80     110.07746124   10000.00000000  surf-drn
  1 81     109.62895203   10000.00000000  surf-drn
  1 82     108.69544983   10000.00000000  surf-drn
  1 83     108.78607941   10000.00000000  surf-drn
  1 84     108.21505737   10000.00000000  surf-drn
  1 85     108.14393616   10000.00000000  surf-drn
  1 86     108.02370453   10000.00000000  surf-drn
  1 87     108.08243561   10000.00000000  surf-drn
  1 88     108.48638916   10000.00000000  surf-drn
  1 89     108.52565765   10000.00000000  surf-drn
  1 90     113.36006927   10000.00000000  surf-drn
  1 91     113.53935242   10000.00000000  surf-drn
  1 92     113.64289093   10000.00000000  surf-drn
  1 93     113.37464905   10000.00000000  surf-drn
  1 94     112.87832642   10000.00000000  surf-drn
  1 95     112.53720856   10000.00000000  surf-drn
  1 96     112.22889709   10000.00000000  surf-drn
  1 97     112.15003967   10000.00000000  surf-drn
  1 98     111.91306305   10000.00000000  surf-drn
  1 99     112.08444977   10000.00000000  surf-drn
  1 100     112.09536743   10000.00000000  surf-drn
  1 101     111.98316193   10000.00000000  surf-drn
  1 102     112.50563812   10000.00000000  surf-drn
  1 103     112.38037109   10000.00000000  surf-drn
  1 104     111.70478821   10000.00000000  surf-drn
  1 105     111.63159180   10000.00000000  surf-drn
  1 106     111.68934631   10000.00000000  surf-drn
  1 107     111.33075714   10000.00000000  surf-drn
  1 108     109.79236603   10000.00000000  surf-drn
  1 109     115.10173035   10000.00000000  surf-drn
  1 110     110.77124786   10000.00000000  surf-drn
  1 111     109.70471191   10000.00000000  surf-drn
  1 112     109.70351410   10000.00000000  surf-drn
  1 113     109.46174622   10000.00000000  surf-drn
  1 114     109.47594452   10000.00000000  surf-drn
  1 115     109.55033112   10000.00000000  surf-drn
  1 116     109.49732208   10000.00000000  surf-drn
  1 117     109.68952942   10000.00000000  surf-drn
  1 118     109.88304901   10000.00000000  surf-drn
  1 119     110.23429871   10000.00000000  surf-drn
  1 120     113.96634674   10000.00000000  surf-drn
  1 121     111.08936310   10000.00000000  surf-drn
  1 122     109.06457520   10000.00000000  surf-drn
  1 123     109.86607361   10000.00000000  surf-drn
  1 124     108.54113770   10000.00000000  surf-drn
  1 125     108.91459656   10000.00000000  surf-drn
  1 126     107.91163635   10000.00000000  surf-drn
  1 127     108.04014587   10000.00000000  surf-drn
  1 128     108.53525543   10000.00000000  surf-drn
  1 129     109.13662720   10000.00000000  surf-drn
  1 130     109.54213715   10000.00000000  surf-drn
  1 131     108.94599152   10000.00000000  surf-drn
  1 132     107.91749573   10000.00000000  surf-drn
  1 133     108.15396881   10000.00000000  surf-drn
  1 134     108.52368927   10000.00000000  surf-drn
  1 135     107.82538605   10000.00000000  surf-drn
  1 136     113.14335632   10000.00000000  surf-drn
  1 137     112.73392487   10000.00000000  surf-drn
  1 138     113.14064789   10000.00000000  surf-drn
  1 139     113.02184296   10000.00000000  surf-drn
  1 140     112.58650208   10000.00000000  surf-drn
  1 141     112.27764130   10000.00000000  surf-drn
  1 142     111.99983215   10000.00000000  surf-drn
  1 143     111.60640717   10000.00000000  surf-drn
  1 144     111.43457794   10000.00000000  surf-drn
  1 145     112.12055206   10000.00000000  surf-drn
  1 146     111.49736786   10000.00000000  surf-drn
  1 147     111.25152588   10000.00000000  surf-drn
  1 148     111.24744415   10000.00000000  surf-drn
  1 149     111.18210602   10000.00000000  surf-drn
  1 150     110.95298767   10000.00000000  surf-drn
  1 151     110.75059509   10000.00000000  surf-drn
  1 152     110.58631897   10000.00000000  surf-drn
  1 153     110.39437103   10000.00000000  surf-drn
  1 154     110.43141937   10000.00000000  surf-drn
  1 155     111.70188904   10000.00000000  surf-drn
  1 156     110.23017120   10000.00000000  surf-drn
  1 157     109.88820648   10000.00000000  surf-drn
  1 158     110.39660645   10000.00000000  surf-drn
  1 159     109.38996124   10000.00000000  surf-drn
  1 160     109.79206085   10000.00000000  surf-drn
  1 161     109.79679871   10000.00000000  surf-drn
  1 162     109.71771240   10000.00000000  surf-drn
  1 163     109.91243744   10000.00000000  surf-drn
  1 164     110.05994415   10000.00000000  surf-drn
  1 165     109.91899109   10000.00000000  surf-drn
  1 166     115.23867798   10000.00000000  surf-drn
  1 167     110.31417847   10000.00000000  surf-drn
  1 168     108.24357605   10000.00000000  surf-drn
  1 169     108.63798523   10000.00000000  surf-drn
  1 170     108.02822113   10000.00000000  surf-drn
  1 171     108.40567780   10000.00000000  surf-drn
  1 172     108.06231689   10000.00000000  surf-drn
  1 173     108.16974640   10000.00000000  surf-drn
  1 174     108.02995300   10000.00000000  surf-drn
  1 175     107.98219299   10000.00000000  surf-drn
  1 176     108.70295715   10000.00000000  surf-drn
  1 177     108.41837311   10000.00000000  surf-drn
  1 178     107.90194702   10000.00000000  surf-drn
  1 179     108.59381104   10000.00000000  surf-drn
  1 180     109.55741119   10000.00000000  surf-drn
  1 181     108.75978851   10000.00000000  surf-drn
  1 182     113.34347534   10000.00000000  surf-drn
  1 183     112.70538330   10000.00000000  surf-drn
  1 184     112.56319427   10000.00000000  surf-drn
  1 185     112.46963501   10000.00000000  surf-drn
  1 186     112.17322540   10000.00000000  surf-drn
  1 187     111.86589813   10000.00000000  surf-drn
  1 188     111.67779541   10000.00000000  surf-drn
  1 189     111.04918671   10000.00000000  surf-drn
  1 190     110.91047668   10000.00000000  surf-drn
  1 191     110.47934723   10000.00000000  surf-drn
  1 192     110.91523743   10000.00000000  surf-drn
  1 193     110.80153656   10000.00000000  surf-drn
  1 194     110.72682953   10000.00000000  surf-drn
  1 195     110.31252289   10000.00000000  surf-drn
  1 196     110.41236115   10000.00000000  surf-drn
  1 197     110.36089325   10000.00000000  surf-drn
  1 198     110.08430481   10000.00000000  surf-drn
  1 199     109.97545624   10000.00000000  surf-drn
  1 200     113.26091766   10000.00000000  surf-drn
  1 201     109.25588226   10000.00000000  surf-drn
  1 202     109.58419037   10000.00000000  surf-drn
  1 203     108.80444336   10000.00000000  surf-drn
  1 204     109.40006256   10000.00000000  surf-drn
  1 205     109.29777527   10000.00000000  surf-drn
  1 206     109.69865417   10000.00000000  surf-drn
  1 207     109.46671295   10000.00000000  surf-drn
  1 208     109.66867828   10000.00000000  surf-drn
  1 209     109.48003387   10000.00000000  surf-drn
  1 210     109.76041412   10000.00000000  surf-drn
  1 211     109.91009521   10000.00000000  surf-drn
  1 212     111.87310028   10000.00000000  surf-drn
  1 213     107.60363770   10000.00000000  surf-drn
  1 214     107.94407654   10000.00000000  surf-drn
  1 215     108.25043488   10000.00000000  surf-drn
  1 216     107.64375305   10000.00000000  surf-drn
  1 217     107.70067596   10000.00000000  surf-drn
  1 218     108.02681732   10000.00000000  surf-drn
  1 219     107.94061279   10000.00000000  surf-drn
  1 220     107.84675598   10000.00000000  surf-drn
  1 221     107.52551270   10000.00000000  surf-drn
  1 222     107.64347839   10000.00000000  surf-drn
  1 223     107.90209198   10000.00000000  surf-drn
  1 224     107.73715210   10000.00000000  surf-drn
  1 225     107.65975189   10000.00000000  surf-drn
  1 226     107.54167175   10000.00000000  surf-drn
  1 227     107.73851013   10000.00000000  surf-drn
  1 228     112.58794403   10000.00000000  surf-drn
  1 229     112.45240784   10000.00000000  surf-drn
  1 230     112.15496063   10000.00000000  surf-drn
  1 231     111.90830231   10000.00000000  surf-drn
  1 232     111.98398590   10000.00000000  surf-drn
  1 233     111.79119110   10000.00000000  surf-drn
  1 234     111.52504730   10000.00000000  surf-drn
  1 235     110.92565155   10000.00000000  surf-drn
  1 236     110.71350098   10000.00000000  surf-drn
  1 237     109.95645142   10000.00000000  surf-drn
  1 238     110.67490387   10000.00000000  surf-drn
  1 239     110.39044952   10000.00000000  surf-drn
  1 240     110.33702087   10000.00000000  surf-drn
  1 241     110.33178711   10000.00000000  surf-drn
  1 242     110.27653503   10000.00000000  surf-drn
  1 243     110.20144653   10000.00000000  surf-drn
  1 244     109.98822021   10000.00000000  surf-drn
  1 245     116.26429749   10000.00000000  surf-drn
  1 246     114.50554657   10000.00000000  surf-drn
  1 247     109.14899445   10000.00000000  surf-drn
  1 248     108.98271942   10000.00000000  surf-drn
  1 249     108.92437744   10000.00000000  surf-drn
  1 250     107.90350342   10000.00000000  surf-drn
  1 251     109.00981140   10000.00000000  surf-drn
  1 252     109.38059998   10000.00000000  surf-drn
  1 253     109.34807587   10000.00000000  surf-drn
  1 254     110.14481354   10000.00000000  surf-drn
  1 255     109.53691864   10000.00000000  surf-drn
  1 256     109.47164154   10000.00000000  surf-drn
  1 257     109.72391510   10000.00000000  surf-drn
  1 258     110.35149384   10000.00000000  surf-drn
  1 259     107.99710846   10000.00000000  surf-drn
  1 260     107.64163971   10000.00000000  surf-drn
  1 261     107.79576874   10000.00000000  surf-drn
  1 262     107.54289246   10000.00000000  surf-drn
  1 263     108.05409241   10000.00000000  surf-drn
  1 264     107.77214813   10000.00000000  surf-drn
  1 265     107.87119293   10000.00000000  surf-drn
  1 266     107.57401276   10000.00000000  surf-drn
  1 267     107.73726654   10000.00000000  surf-drn
  1 268     107.91943359   10000.00000000  surf-drn
  1 269     107.58340454   10000.00000000  surf-drn
  1 270     107.56303406   10000.00000000  surf-drn
  1 271     107.77671814   10000.00000000  surf-drn
  1 272     107.49782562   10000.00000000  surf-drn
  1 273     107.41670227   10000.00000000  surf-drn
  1 274     107.01035309   10000.00000000  surf-drn
  1 275     107.17045593   10000.00000000  surf-drn
  1 276     107.48990631   10000.00000000  surf-drn
  1 277     111.99095154   10000.00000000  surf-drn
  1 278     111.53736115   10000.00000000  surf-drn
  1 279     112.36158752   10000.00000000  surf-drn
  1 280     111.79032898   10000.00000000  surf-drn
  1 281     111.12498474   10000.00000000  surf-drn
  1 282     111.36067963   10000.00000000  surf-drn
  1 283     111.09900665   10000.00000000  surf-drn
  1 284     110.76465607   10000.00000000  surf-drn
  1 285     110.87867737   10000.00000000  surf-drn
  1 286     110.66081238   10000.00000000  surf-drn
  1 287     110.35361481   10000.00000000  surf-drn
  1 288     110.15474701   10000.00000000  surf-drn
  1 289     110.32732391   10000.00000000  surf-drn
  1 290     110.31827545   10000.00000000  surf-drn
  1 291     110.29696655   10000.00000000  surf-drn
  1 292     110.07258606   10000.00000000  surf-drn
  1 293     109.93322754   10000.00000000  surf-drn
  1 294     114.48365021   10000.00000000  surf-drn
  1 295     112.34738922   10000.00000000  surf-drn
  1 296     108.71725464   10000.00000000  surf-drn
  1 297     108.75859833   10000.00000000  surf-drn
  1 298     108.79534149   10000.00000000  surf-drn
  1 299     108.10446930   10000.00000000  surf-drn
  1 300     107.86817169   10000.00000000  surf-drn
  1 301     109.00812531   10000.00000000  surf-drn
  1 302     108.97666168   10000.00000000  surf-drn
  1 303     108.68128967   10000.00000000  surf-drn
  1 304     108.56346130   10000.00000000  surf-drn
  1 305     108.78773499   10000.00000000  surf-drn
  1 306     107.57078552   10000.00000000  surf-drn
  1 307     110.00837708   10000.00000000  surf-drn
  1 308     108.34374237   10000.00000000  surf-drn
  1 309     108.17825317   10000.00000000  surf-drn
  1 310     107.57271576   10000.00000000  surf-drn
  1 311     107.39953613   10000.00000000  surf-drn
  1 312     107.61702728   10000.00000000  surf-drn
  1 313     107.50867462   10000.00000000  surf-drn
  1 314     107.80767822   10000.00000000  surf-drn
  1 315     107.75129700   10000.00000000  surf-drn
  1 316     107.25507355   10000.00000000  surf-drn
  1 317     107.56143951   10000.00000000  surf-drn
  1 318     107.58618164   10000.00000000  surf-drn
  1 319     107.48033142   10000.00000000  surf-drn
  1 320     107.57894897   10000.00000000  surf-drn
  1 321     106.82881165   10000.00000000  surf-drn
  1 322     106.66177368   10000.00000000  surf-drn
  1 323     106.79237366   10000.00000000  surf-drn
  1 324     106.76782990   10000.00000000  surf-drn
  1 325     106.88297272   10000.00000000  surf-drn
  1 326     112.42301941   10000.00000000  surf-drn
  1 327     111.98753357   10000.00000000  surf-drn
  1 328     111.44628143   10000.00000000  surf-drn
  1 329     110.57295227   10000.00000000  surf-drn
  1 330     111.68794250   10000.00000000  surf-drn
  1 331     110.30176544   10000.00000000  surf-drn
  1 332     110.11637878   10000.00000000  surf-drn
  1 333     110.89229584   10000.00000000  surf-drn
  1 334     110.58782959   10000.00000000  surf-drn
  1 335     110.44230652   10000.00000000  surf-drn
  1 336     110.36811829   10000.00000000  surf-drn
  1 337     110.25376892   10000.00000000  surf-drn
  1 338     110.25813293   10000.00000000  surf-drn
  1 339     110.32110596   10000.00000000  surf-drn
  1 340     110.32569885   10000.00000000  surf-drn
  1 341     109.98838043   10000.00000000  surf-drn
  1 342     110.00891876   10000.00000000  surf-drn
  1 343     113.03942871   10000.00000000  surf-drn
  1 344     109.13211823   10000.00000000  surf-drn
  1 345     108.97649384   10000.00000000  surf-drn
  1 346     108.64066315   10000.00000000  surf-drn
  1 347     108.59888458   10000.00000000  surf-drn
  1 348     108.15955353   10000.00000000  surf-drn
  1 349     108.67845917   10000.00000000  surf-drn
  1 350     108.44496155   10000.00000000  surf-drn
  1 351     108.97948456   10000.00000000  surf-drn
  1 352     108.71453857   10000.00000000  surf-drn
  1 353     108.88604736   10000.00000000  surf-drn
  1 354     107.71517181   10000.00000000  surf-drn
  1 355     108.45389557   10000.00000000  surf-drn
  1 356     109.28626251   10000.00000000  surf-drn
  1 357     108.15329742   10000.00000000  surf-drn
  1 358     107.75646210   10000.00000000  surf-drn
  1 359     107.05947876   10000.00000000  surf-drn
  1 360     107.45228577   10000.00000000  surf-drn
  1 361     107.73381805   10000.00000000  surf-drn
  1 362     107.56489563   10000.00000000  surf-drn
  1 363     107.44052887   10000.00000000  surf-drn
  1 364     107.29486847   10000.00000000  surf-drn
  1 365     107.30510712   10000.00000000  surf-drn
  1 366     107.30757904   10000.00000000  surf-drn
  1 367     106.46874237   10000.00000000  surf-drn
  1 368     106.54135895   10000.00000000  surf-drn
  1 369     106.53684235   10000.00000000  surf-drn
  1 370     106.55322266   10000.00000000  surf-drn
  1 371     106.47688293   10000.00000000  surf-drn
  1 372     111.29786682   10000.00000000  surf-drn
  1 373     111.42654419   10000.00000000  surf-drn
  1 374     111.65290833   10000.00000000  surf-drn
  1 375     111.66648102   10000.00000000  surf-drn
  1 376     111.55455017   10000.00000000  surf-drn
  1 377     111.39212799   10000.00000000  surf-drn
  1 378     110.56809998   10000.00000000  surf-drn
  1 379     110.81912231   10000.00000000  surf-drn
  1 380     110.84058380   10000.00000000  surf-drn
  1 381     110.29872131   10000.00000000  surf-drn
  1 382     110.05200958   10000.00000000  surf-drn
  1 383     110.28348541   10000.00000000  surf-drn
  1 384     110.27825928   10000.00000000  surf-drn
  1 385     110.45191193   10000.00000000  surf-drn
  1 386     110.24423981   10000.00000000  surf-drn
  1 387     109.87139130   10000.00000000  surf-drn
  1 388     110.13681793   10000.00000000  surf-drn
  1 389     113.28127289   10000.00000000  surf-drn
  1 390     109.39025879   10000.00000000  surf-drn
  1 391     108.78186798   10000.00000000  surf-drn
  1 392     108.38252258   10000.00000000  surf-drn
  1 393     108.47258759   10000.00000000  surf-drn
  1 394     108.21181488   10000.00000000  surf-drn
  1 395     107.57157135   10000.00000000  surf-drn
  1 396     106.94093323   10000.00000000  surf-drn
  1 397     108.63523102   10000.00000000  surf-drn
  1 398     108.01628113   10000.00000000  surf-drn
  1 399     107.62376404   10000.00000000  surf-drn
  1 400     107.49947357   10000.00000000  surf-drn
  1 401     107.63301849   10000.00000000  surf-drn
  1 402     107.86785126   10000.00000000  surf-drn
  1 403     109.60462952   10000.00000000  surf-drn
  1 404     106.69271088   10000.00000000  surf-drn
  1 405     106.92262268   10000.00000000  surf-drn
  1 406     107.47429657   10000.00000000  surf-drn
  1 407     107.02009583   10000.00000000  surf-drn
  1 408     106.93034363   10000.00000000  surf-drn
  1 409     106.79883575   10000.00000000  surf-drn
  1 410     106.96275330   10000.00000000  surf-drn
  1 411     107.21628571   10000.00000000  surf-drn
  1 412     106.94571686   10000.00000000  surf-drn
  1 413     106.24723053   10000.00000000  surf-drn
  1 414     106.24638367   10000.00000000  surf-drn
  1 415     106.32935333   10000.00000000  surf-drn
  1 416     106.30901337   10000.00000000  surf-drn
  1 417     106.54359436   10000.00000000  surf-drn
  1 418     110.95385742   10000.00000000  surf-drn
  1 419     110.75579071   10000.00000000  surf-drn
  1 420     111.66865540   10000.00000000  surf-drn
  1 421     111.45765686   10000.00000000  surf-drn
  1 422     111.41977692   10000.00000000  surf-drn
  1 423     111.26448059   10000.00000000  surf-drn
  1 424     110.53316498   10000.00000000  surf-drn
  1 425     110.32106018   10000.00000000  surf-drn
  1 426     110.13616943   10000.00000000  surf-drn
  1 427     111.35399628   10000.00000000  surf-drn
  1 428     110.40563202   10000.00000000  surf-drn
  1 429     110.22991943   10000.00000000  surf-drn
  1 430     110.27721405   10000.00000000  surf-drn
  1 431     110.31291199   10000.00000000  surf-drn
  1 432     110.12551117   10000.00000000  surf-drn
  1 433     109.93012238   10000.00000000  surf-drn
  1 434     111.15176392   10000.00000000  surf-drn
  1 435     112.13991547   10000.00000000  surf-drn
  1 436     109.38682556   10000.00000000  surf-drn
  1 437     108.79319000   10000.00000000  surf-drn
  1 438     108.59695435   10000.00000000  surf-drn
  1 439     108.13204956   10000.00000000  surf-drn
  1 440     108.01429749   10000.00000000  surf-drn
  1 441     107.78392792   10000.00000000  surf-drn
  1 442     107.29421997   10000.00000000  surf-drn
  1 443     107.50715637   10000.00000000  surf-drn
  1 444     107.99102020   10000.00000000  surf-drn
  1 445     107.36658478   10000.00000000  surf-drn
  1 446     107.66970062   10000.00000000  surf-drn
  1 447     107.46920013   10000.00000000  surf-drn
  1 448     107.95793152   10000.00000000  surf-drn
  1 449     113.99160004   10000.00000000  surf-drn
  1 450     106.53955841   10000.00000000  surf-drn
  1 451     106.57891083   10000.00000000  surf-drn
  1 452     107.39547729   10000.00000000  surf-drn
  1 453     106.55220032   10000.00000000  surf-drn
  1 454     107.73879242   10000.00000000  surf-drn
  1 455     107.07256317   10000.00000000  surf-drn
  1 456     107.01179504   10000.00000000  surf-drn
  1 457     106.81725311   10000.00000000  surf-drn
  1 458     106.49023438   10000.00000000  surf-drn
  1 459     106.05864716   10000.00000000  surf-drn
  1 460     106.05464935   10000.00000000  surf-drn
  1 461     106.06859589   10000.00000000  surf-drn
  1 462     106.04421234   10000.00000000  surf-drn
  1 463     106.65161896   10000.00000000  surf-drn
  1 464     110.81363678   10000.00000000  surf-drn
  1 465     110.91364288   10000.00000000  surf-drn
  1 466     111.97460938   10000.00000000  surf-drn
  1 467     111.41500854   10000.00000000  surf-drn
  1 468     111.37097168   10000.00000000  surf-drn
  1 469     111.14038086   10000.00000000  surf-drn
  1 470     111.29854584   10000.00000000  surf-drn
  1 471     109.94615936   10000.00000000  surf-drn
  1 472     110.11932373   10000.00000000  surf-drn
  1 473     110.16420746   10000.00000000  surf-drn
  1 474     110.13165283   10000.00000000  surf-drn
  1 475     109.92614746   10000.00000000  surf-drn
  1 476     110.34449005   10000.00000000  surf-drn
  1 477     110.29563904   10000.00000000  surf-drn
  1 478     110.07205963   10000.00000000  surf-drn
  1 479     110.58834839   10000.00000000  surf-drn
  1 480     113.57814789   10000.00000000  surf-drn
  1 481     109.98525238   10000.00000000  surf-drn
  1 482     108.23933411   10000.00000000  surf-drn
  1 483     108.51177979   10000.00000000  surf-drn
  1 484     108.42719269   10000.00000000  surf-drn
  1 485     107.85352325   10000.00000000  surf-drn
  1 486     107.33605194   10000.00000000  surf-drn
  1 487     107.86537933   10000.00000000  surf-drn
  1 488     107.55682373   10000.00000000  surf-drn
  1 489     107.33997345   10000.00000000  surf-drn
  1 490     108.33606720   10000.00000000  surf-drn
  1 491     107.75084686   10000.00000000  surf-drn
  1 492     107.40193176   10000.00000000  surf-drn
  1 493     107.81063843   10000.00000000  surf-drn
  1 494     107.67513275   10000.00000000  surf-drn
  1 495     108.28343201   10000.00000000  surf-drn
  1 496     107.95429993   10000.00000000  surf-drn
  1 497     108.06585693   10000.00000000  surf-drn
  1 498     108.30677032   10000.00000000  surf-drn
  1 499     107.34711456   10000.00000000  surf-drn
  1 500     107.75106812   10000.00000000  surf-drn
  1 501     106.59117126   10000.00000000  surf-drn
  1 502     106.83346558   10000.00000000  surf-drn
  1 503     107.26757812   10000.00000000  surf-drn
  1 504     106.49839783   10000.00000000  surf-drn
  1 505     106.07092285   10000.00000000  surf-drn
  1 506     105.88570404   10000.00000000  surf-drn
  1 507     105.87377930   10000.00000000  surf-drn
  1 508     105.84816742   10000.00000000  surf-drn
  1 509     106.62994385   10000.00000000  surf-drn
  1 510     111.04505920   10000.00000000  surf-drn
  1 511     111.38056946   10000.00000000  surf-drn
  1 512     110.69873810   10000.00000000  surf-drn
  1 513     110.72727203   10000.00000000  surf-drn
  1 514     111.33502960   10000.00000000  surf-drn
  1 515     111.42222595   10000.00000000  surf-drn
  1 516     112.60061646   10000.00000000  surf-drn
  1 517     110.61230469   10000.00000000  surf-drn
  1 518     110.08338165   10000.00000000  surf-drn
  1 519     109.92633820   10000.00000000  surf-drn
  1 520     109.63611603   10000.00000000  surf-drn
  1 521     110.14860535   10000.00000000  surf-drn
  1 522     110.08162689   10000.00000000  surf-drn
  1 523     110.18274689   10000.00000000  surf-drn
  1 524     109.97566986   10000.00000000  surf-drn
  1 525     112.82658386   10000.00000000  surf-drn
  1 526     111.50368500   10000.00000000  surf-drn
  1 527     109.72647095   10000.00000000  surf-drn
  1 528     108.24127197   10000.00000000  surf-drn
  1 529     108.15772247   10000.00000000  surf-drn
  1 530     108.09813690   10000.00000000  surf-drn
  1 531     107.68468475   10000.00000000  surf-drn
  1 532     107.55891418   10000.00000000  surf-drn
  1 533     107.52497864   10000.00000000  surf-drn
  1 534     107.24716187   10000.00000000  surf-drn
  1 535     107.14369965   10000.00000000  surf-drn
  1 536     107.19445801   10000.00000000  surf-drn
  1 537     107.76610565   10000.00000000  surf-drn
  1 538     107.51036072   10000.00000000  surf-drn
  1 539     107.88200378   10000.00000000  surf-drn
  1 540     107.86628723   10000.00000000  surf-drn
  1 541     108.19886780   10000.00000000  surf-drn
  1 542     109.78646851   10000.00000000  surf-drn
  1 543     107.83852386   10000.00000000  surf-drn
  1 544     107.48939514   10000.00000000  surf-drn
  1 545     106.60484314   10000.00000000  surf-drn
  1 546     107.89998627   10000.00000000  surf-drn
  1 547     106.97810364   10000.00000000  surf-drn
  1 548     105.92844391   10000.00000000  surf-drn
  1 549     106.60514069   10000.00000000  surf-drn
  1 550     106.49678040   10000.00000000  surf-drn
  1 551     106.49668884   10000.00000000  surf-drn
  1 552     107.27530670   10000.00000000  surf-drn
  1 553     106.61320496   10000.00000000  surf-drn
  1 554     105.97487640   10000.00000000  surf-drn
  1 555     105.63551331   10000.00000000  surf-drn
  1 556     105.65095520   10000.00000000  surf-drn
  1 557     105.70981598   10000.00000000  surf-drn
  1 558     106.38338470   10000.00000000  surf-drn
  1 559     111.37419891   10000.00000000  surf-drn
  1 560     110.90595245   10000.00000000  surf-drn
  1 561     111.25885773   10000.00000000  surf-drn
  1 562     110.55242157   10000.00000000  surf-drn
  1 563     110.93256378   10000.00000000  surf-drn
  1 564     110.76670074   10000.00000000  surf-drn
  1 565     111.36273193   10000.00000000  surf-drn
  1 566     110.51669312   10000.00000000  surf-drn
  1 567     110.44647217   10000.00000000  surf-drn
  1 568     110.49530029   10000.00000000  surf-drn
  1 569     107.93309784   10000.00000000  surf-drn
  1 570     109.96699524   10000.00000000  surf-drn
  1 571     109.54573059   10000.00000000  surf-drn
  1 572     109.62927246   10000.00000000  surf-drn
  1 573     109.68772125   10000.00000000  surf-drn
  1 574     110.35840607   10000.00000000  surf-drn
  1 575     109.74364471   10000.00000000  surf-drn