# File generated by Flopy version 3.3.3 on 06/14/2021 at 16:02:57.
BEGIN options
  DIGITS  9
END options

BEGIN continuous  FILEOUT  drn_surf.csv
  surf-drn  DRN  surf-drn
END continuous  FILEOUT  drn_surf.csv

