# File generated by Flopy version 3.3.3 on 06/13/2021 at 12:17:18.
BEGIN options
END options

