# File generated by Flopy version 3.3.3 on 06/14/2021 at 16:02:56.
BEGIN options
  TIME_UNITS  seconds
  START_DATE_TIME  2021-06-01
END options

BEGIN dimensions
  NPER  1
END dimensions

BEGIN perioddata
       1.00000000  1       1.00000000
END perioddata

