# File generated by Flopy version 3.3.3 on 06/14/2021 at 16:02:56.
BEGIN options
END options

