# File generated by Flopy version 3.3.3 on 07/03/2021 at 12:38:47.
BEGIN options
  DIGITS  9
END options

BEGIN continuous  FILEOUT  riv.csv
  riv  RIV  riv
END continuous  FILEOUT  riv.csv

