# File generated by Flopy version 3.3.4 on 11/01/2021 at 14:39:57.
BEGIN options
  BUDGET  FILEOUT  sgn.cbb
  HEAD  FILEOUT  sgn.hds
  HEAD  PRINT_FORMAT  COLUMNS  10  WIDTH  15  DIGITS  6  GENERAL
END options

BEGIN period  1
  SAVE  HEAD  LAST
  SAVE  BUDGET  LAST
  PRINT  HEAD  LAST
  PRINT  BUDGET  ALL
END period  1

