# File generated by Flopy version 3.3.3 on 07/03/2021 at 12:38:46.
BEGIN griddata
  strt
    INTERNAL  FACTOR  1.0
       113.17749023     112.95309448     112.82367706     113.81641388     113.89986420     113.73541260     113.58529663     112.33863068     112.98705292     112.87075043     113.22854614     112.41183472     112.52619171     112.04480743     112.00542450     112.54753876     112.71735382     112.76519775     112.86130524     112.88484192
       113.02445984     113.01183319     112.95915985     112.92285919     112.26748657     112.31240845     111.81162262     111.70061493     111.67498779     111.65473175     111.64402771     111.66426849     111.58960724     111.61719513     110.70307922     110.46750641     109.92114258     114.83789062     111.58669281     110.36612701
       110.19659424     110.12001801     110.08786011     110.09187317     110.00178528     109.82427979     109.72833252     109.99532318     109.92133331     109.90258026     109.63471222     109.54837799     109.67291260     109.83979034     110.13896942     111.51633453     110.93206024     109.80580139     113.85849762     109.58386993
       109.68040466     111.10626221     110.50037384     109.51778412     110.63022614     109.68912506     109.80369568     109.58732605     109.37113190     109.06087494     109.02361298     108.70903778     108.55424500     109.01789093     108.66582489     108.38236237     108.23851776     108.15754700     108.23825073     108.19750214
       108.06193542     108.11563110     108.16135406     108.16628265     108.51976013     108.64288330     112.86772919     113.75123596     113.36373138     113.84557343     113.67471313     113.62448883     113.76105499     112.64441681     113.08890533     112.76814270     112.62390900     112.46112061     112.27534485     112.21858978
       112.12133789     112.35424042     112.62730408     112.83129883     112.82238007     112.98858643     113.01763916     113.03221893     113.03715515     112.97153473     112.50856781     112.41146088     111.80456543     111.72223663     111.58058929     111.55562592     111.48908234     111.63770294     111.55896759     111.41519165
       110.89113617     110.93459320     110.89981079     114.93793488     110.24505615     110.49478149     110.36381531     109.98785400     109.75858307     109.91063690     110.20063019     110.14413452     109.21547699     109.82954407     109.93922424     109.90866089     109.37915039     109.39761353     109.50833130     109.73441315
       110.14263916     110.08574677     111.86508179     113.38272095     113.74883270     108.55090332     109.26151276     114.54342651     110.79950714     109.25864410     109.87245178     109.19939423     110.48084259     110.01251984     109.45594025     109.56661224     110.10760498     109.38434601     109.10599518     108.21170044
       108.11619568     108.12010193     108.03664398     108.03952026     108.14024353     108.05098724     107.91324615     107.96910095     108.04788208     108.21245575     108.65400696     108.45948792     113.55124664     113.65458679     113.75989532     113.76332855     113.58054352     113.38104248     113.35800934     113.02468872
       113.05722046     112.53987885     112.44559479     112.34326935     112.28600311     112.32721710     112.15361786     112.05086517     112.13856506     112.22586060     112.23744965     112.39048004     112.39324188     112.61567688     112.74541473     112.86875916     112.78481293     112.14225769     111.76827240     111.75926971
       111.59125519     111.66602325     111.63783264     111.73177338     111.78230286     111.29723358     109.98556519     110.69428253     113.23101044     113.32466125     110.32466888     110.69416809     110.30032349     110.02440643     109.87358856     109.54148865     109.99928284     109.94213867     109.85388947     109.35368347
       109.70443726     109.81585693     109.52194214     109.33589172     109.47649384     109.78575134     109.72718048     109.79212189     109.94709015     113.80408478     113.48365784     110.09298706     108.65929413     113.10836029     109.35342407     109.31263733     108.96676636     109.17833710     109.86607361     109.18494415
       108.20578766     108.00930023     108.62841034     109.53035736     109.69420624     109.52670288     109.42961884     109.03656006     108.66340637     108.23986816     108.09737396     107.82213593     107.75807953     107.82542419     108.06343842     108.19338226     108.52420044     108.03451538     113.24888611     113.43673706
       113.56020355     113.07359314     113.35705566     113.27064514     112.84558105     112.81086731     112.43362427     112.57622528     112.19789886     112.07558441     112.04885101     111.97309113     111.76210785     111.74889374     111.98258972     112.15656281     112.05263519     111.74753571     111.54879761     111.69737244
       111.84717560     112.14173889     112.29868317     111.91033173     111.71306610     111.72623444     111.75312042     111.69927216     111.70661926     111.45372009     111.31195068     110.29170227     109.56490326     110.60198975     115.07437134     111.57164001     110.18286133     110.57051849     109.73616791     109.75140381
       109.83339691     109.98841858     109.48725128     109.17713165     110.04549408     109.33135986     108.64249420     109.69343567     109.55531311     109.50962830     109.83657837     109.94543457     109.89311218     109.78589630     109.80637360     112.33525085     114.72566223     114.97753906     110.10721588     110.69548035
       108.84175873     108.79454041     108.58452606     108.34969330     108.91459656     108.66559601     107.62699890     107.90634155     108.18991852     108.20600891     108.19895935     108.11338043     109.02850342     108.83203888     109.14469910     109.38102722     109.63819885     109.07625580     108.70189667     108.51666260
       108.94650269     108.86714935     108.44579315     107.70190430     113.23724365     113.18777466     113.29267883     113.06670380     113.08010864     113.08293152     112.80177307     112.62049103     112.14425659     112.47409821     112.09754944     112.02002716     112.02175140     111.53277588     111.07797241     111.80329132
       112.13906097     112.18231201     111.60302734     111.47989655     111.29356384     111.26622009     111.32395172     111.38620758     111.53295898     111.36156464     111.30678558     111.33995056     111.30284882     111.32832336     111.49759674     111.01292419     110.89508820     110.19754028     109.37567139     111.84665680
       115.53398132     110.33621979     110.00534821     110.09045410     110.03938293     109.77993011     110.03106689     110.55770874     109.53399658     109.28437805     109.90375519     110.00158691     109.61734772     109.74569702     109.70992279     109.70554352     109.84321594     110.02528381     110.16960907     110.03752899
       109.84194183     111.56792450     114.71854401     112.77394104     111.79933167     109.14125061     108.21694946     108.22107697     107.99197388     108.16680908     108.23983002     108.80551910     108.31510162     108.75917053     108.77287292     107.51795197     107.91798401     108.02457428     108.16835022     108.19667816
       108.27706146     108.51587677     108.51985931     108.55502319     108.28272247     108.27032471     108.59642029     109.03387451     109.42184448     109.88764191     109.76799011     108.98850250     108.29524994     112.71286774     112.24533081     112.93266296     112.96328735     112.87787628     112.86940002     112.57276154
       112.29110718     112.14946747     112.07682800     111.98537445     111.84916687     111.60560608     111.37613678     111.36024475     111.42509460     111.68093109     111.83297729     111.63464355     111.34439850     111.18422699     111.18679810     111.16905212     111.12106323     111.39312744     110.60945892     110.93037415
       110.68074036     110.39209747     110.45147705     110.15505981     109.86908722     109.64370728     109.69441223     109.58316040     113.79504395     113.52803040     109.55811310     109.95565796     110.10999298     109.85063171     109.86839294     110.65381622     110.60076141     109.94715881     109.74642181     109.62200928
       109.81545258     109.90173340     109.36975861     109.28643036     109.89261627     109.80332184     110.14326477     110.15024567     110.04319000     110.08430481     111.08246613     113.63659668     112.02005768     111.58998871     107.88054657     108.02822113     108.23532104     108.71598053     108.33774567     108.62601471
       108.88442230     107.96289825     108.14229584     108.00990295     107.97369385     107.89397430     107.88607788     107.81518555     108.47574615     108.74286652     108.61135864     108.05077362     108.13236237     107.99352264     107.59834290     108.06719971     108.40506744     108.92712402     109.17610168     112.80918121
       112.15606689     112.63182831     112.63693237     112.54126740     112.54239655     112.34053802     112.12470245     111.89453888     111.96591949     111.80056763     111.58718872     111.31970215     111.12857819     111.05005646     111.01497650     111.01429749     110.61468506     110.86261749     111.09426117     111.14266205
       111.10704803     111.04554749     110.47505188     110.37363434     110.32237244     110.44107056     110.39389038     110.27524567     110.40737915     110.08418274     109.39033508     108.27703857     108.42591095     110.29011536     114.24119568     111.58868408     109.56320953     109.64694214     109.63343048     109.33905792
       109.30200958     109.64000702     109.52740479     109.50566864     109.22352600     109.59346008     109.84160614     109.49510956     109.57598114     109.47554016     109.61917877     109.48242950     109.64700317     109.93532562     110.37503052     110.45127869     110.32900238     112.34125519     111.93892670     110.00066376
       107.19132996     107.74076080     108.33679962     108.40173340     108.11354828     108.18440247     108.63359833     107.70741272     107.89546967     107.90510559     107.90042877     107.91436005     107.76638794     107.58011627     107.97841644     108.20795441     108.22914886     108.06784821     107.93306732     107.84050751
       107.70124054     107.57437897     107.55641937     107.69596100     107.73674011     112.77687073     112.84564972     112.64044952     112.59602356     112.51094818     112.20503235     112.10282898     111.95917511     111.59815216     111.85230255     111.80667114     111.53975677     111.15339661     110.90529633     110.81483459
       110.75022125     110.70889282     110.59918213     110.84592438     110.32968140     110.26254272     110.26418304     110.69908905     110.56816101     110.39039612     110.39974213     110.41711426     110.33622742     110.33561707     110.33977509     110.23618317     109.91249847     110.10109711     115.01651764     114.22565460
       114.81369019     109.82507324     109.38549042     109.42179871     109.20677948     108.80039215     108.68524170     109.34799957     109.32184601     109.31508636     109.62515259     109.71057892     109.54630280     109.37959290     109.71438599     109.92014313     109.61852264     109.85760498     109.51923370     109.62455750
       109.72335052     110.10662079     109.98191833     111.19665527     111.30359650     108.34149170     107.46829224     107.64375305     107.97723389     107.84944153     107.84779358     107.74330902     107.51998138     107.95892334     107.95317078     107.88283539     107.81162262     107.77352905     107.79383087     107.38333130
       107.30090332     107.36714172     107.46041870     107.52287292     107.47447205     107.83964539     107.91471863     107.76654816     107.59344482     107.53593445     107.46493530     112.84578705     112.54588318     112.43869019     112.39056396     112.16562653     111.98600006     112.04658508     111.93695068     111.77835846
       111.85596466     111.71385956     111.44817352     111.09449005     110.84562683     110.66095734     110.49475861     109.83576202     110.50653076     110.57793427     110.46760559     110.27691650     110.12664795     110.50704193     110.33944702     110.31127167     110.33188629     110.32404327     110.27500153     110.29581451
       110.19419861     110.06346130     109.93732452     113.22605896     117.19207764     114.30279541     113.75852203     109.15905762     109.17861938     109.05603790     109.03448486     109.04512787     108.93630981     109.02715302     108.48487854     108.96740723     109.39616394     109.32045746     109.39709473     109.37493896
       109.40364838     109.96773529     109.88066864     109.65387726     109.54521179     109.37389374     109.64440155     109.73583221     109.75433350     110.23096466     110.64992523     107.94397736     107.68095398     107.59368896     107.85726929     107.74659729     107.89956665     107.76042938     107.77214813     107.91886902
       107.87516022     107.81441498     107.66285706     107.49809265     107.63019562     107.30067444     107.47152710     107.20300293     107.08098602     107.36334229     107.83239746     107.65874481     107.32059479     107.30104065     107.36663055     107.51688385     107.64675903     112.20259857     111.81626892     112.22925568
       111.89147186     111.77357483     111.49597168     111.92566681     111.70562744     111.68763733     111.75469208     111.64169312     111.17984772     111.01409149     110.78875732     110.79111481     110.60087585     110.21656799     110.32592773     110.51114655     110.79300690     110.65142059     110.49977875     110.31507111
       110.38416290     110.34341431     110.34980011     110.30849457     110.21923828     110.18152618     110.08498383     110.02721405     109.94364166     114.75815582     115.82648468     113.95770264     112.11906433     108.95429230     109.07765961     108.93569946     108.86573792     108.90129852     108.91403198     108.69065094
       108.02146912     108.15175629     109.09598541     109.25665283     109.31771088     109.32450104     109.18403625     109.56723022     109.59866333     109.05238342     109.49272156     109.30779266     109.47209167     109.62014771     109.45880127     109.66584015     110.07427216     108.65121460     107.51560211     107.54289246
       108.05107117     107.83286285     108.23514557     108.02252960     107.72695923     107.52371979     107.68226624     107.57607269     107.73726654     107.65997314     107.94678497     107.69864655     107.76892090     107.79891968     107.23746490     107.58034515     107.10498047     107.48192596     107.77561188     107.24691010
       106.89390564     106.90814972     107.02307129     107.18743896     107.02539825     107.24694824     111.49380493     111.65383911     112.16597748     112.26490784     111.86817932     111.70391083     111.57185364     111.24253082     111.62800598     111.40868378     111.31000519     111.04808044     111.00919342     110.68517303
       110.89665222     110.59399414     110.67656708     110.55950165     110.52787781     110.23954773     110.34870911     110.44062042     110.25907135     110.33079529     110.30042267     110.35444641     110.31702423     110.25374603     110.22827911     109.97061157     109.95813751     110.19409180     116.03406525     114.93795776
       114.14997101     110.90714264     108.81327057     108.81092072     108.84377289     108.82527161     108.80702972     108.87577057     108.09608459     108.43887329     108.13033295     108.30330658     109.06981659     109.05973816     108.84205627     109.08242798     109.11985016     108.31138611     108.53399658     108.72184753
       109.26839447     109.18758392     108.28858185     107.91624451     109.31177521     109.84970093     108.63243103     107.84215546     107.98173523     108.35999298     107.65133667     107.64749908     107.75376892     107.55944824     107.43440247     107.80767822     107.75129700     107.69901276     107.60640717     107.55813599
       107.36145020     107.44047546     107.45709991     107.58389282     106.99962616     106.70264435     106.72049713     106.79933929     106.88056946     106.80533600     106.88639832     106.97418976     111.59905243     112.08934021     112.35744476     112.18984985     112.06962585     111.70302582     110.90312958     110.97676849
       111.34597778     110.92050934     110.95251465     110.84696960     110.89942169     110.65982819     110.91387939     110.79454803     110.74771881     110.55950928     110.31651306     109.96845245     109.99607086     110.21900940     110.29608154     110.26107788     110.27333832     110.31829834     110.32109833     110.29011536
       110.24401093     109.95501709     109.88938904     110.02901459     112.21063232     113.44801331     113.68045807     109.54853821     108.84278107     108.66191864     108.58892822     108.66812134     108.59627533     108.75170135     108.24297333     108.21874237     108.44173431     108.61713409     108.88361359     108.71329498
       108.93730927     109.10216522     109.04309845     108.56224060     108.93698883     108.89900970     108.56567383     107.74398804     107.48300934     108.12804413     109.07071686     110.25559235     108.46990204     108.16054535     108.12292480     107.86612701     107.69786072     107.62990570     107.56000519     107.51113129
       107.51409912     107.11093903     107.43512726     107.42444611     107.21118927     107.61434937     107.45290375     107.45506287     107.59325409     107.56240082     107.45393372     107.41300201     107.43752289     107.55691528     107.55104065     106.90385437     106.61771393     106.65908051     106.64424133     106.70323181
       106.75255585     106.69028473     106.71723175     106.72408295     111.95244598     112.09686279     112.17768860     111.43289185     110.93550873     111.30970764     111.23200989     111.28069305     109.98095703     110.29591370     110.42137146     109.86912537     110.78855133     110.79408264     110.69311523     110.66543579
       110.57811737     110.46596527     110.38243866     110.24525452     110.25798035     110.26103973     110.27502441     110.23146057     110.28072357     110.30017853     110.32847595     110.30905914     110.23992157     109.99029541     109.89386749     110.04541016     111.94814301     113.44490051     112.65673065     108.93206787
       109.07754517     108.98834229     108.58692169     108.53468323     108.42485046     108.71820831     108.49073792     108.07774353     108.65649414     108.96068573     108.78795624     108.76582336     108.82894135     108.88420105     108.83039093     108.72892761     108.68296051     108.87726593     108.29273224     107.82680511
       108.22931671     108.51161194     108.54352570     110.46355438     108.60813904     108.08235931     108.03406525     107.50105286     107.22689819     107.13768005     107.41567230     107.32256317     107.39991760     107.49105835     107.68101501     107.67339325     107.64344788     107.70713806     107.40054321     107.43096924
       107.31281281     107.22780609     107.35808563     107.21879578     106.56549072     106.55460358     106.58749390     106.59329224     106.61164093     106.58773041     106.60949707     106.58596039     106.59667969     112.02722931     111.93885040     111.63201141     111.23576355     111.68317413     110.56219482     111.56703949
       111.60195160     111.13463593     111.01934814     110.69906616     110.55336761     110.66407776     110.77893066     110.31370544     110.61299896     110.22776031     110.32557678     110.37002563     110.37336731     110.24610901     110.18424988     110.26023865     110.22356415     110.32907104     110.36095428     110.36529541
       110.23650360     110.07090759     109.84245300     109.91748810     110.16558838     111.73736572     113.65945435     110.88074493     108.62469482     109.26425934     108.72698975     108.99823761     108.37658691     108.48616028     107.97907257     107.90913391     108.05973816     107.81316376     105.97041321     106.39620972
       108.71759033     108.72901917     108.71775055     108.61837006     108.64974976     108.68624115     108.29271698     107.67991638     107.63558197     107.88107300     108.61817932     108.56479645     110.22100067     109.75939178     108.08010864     107.98437500     107.14101410     107.11168671     106.97640991     107.45936584
       107.49707031     107.60573578     107.76250458     107.52058411     107.57286072     107.46253967     107.49104309     107.03849030     107.36911774     107.58135223     107.24342346     107.22853851     106.94557190     106.43753052     106.45620728     106.52554321     106.49684143     106.51967621     106.50018311     106.53533936
       106.50507355     106.51647949     111.86917114     111.64842224     111.73558044     111.85933685     111.75243378     111.42294312     111.30222321     111.60742188     111.47890472     110.81827545     111.08678436     110.42553711     110.61666870     110.80828094     110.38783264     110.60778809     110.11517334     110.06531525
       110.22591400     110.53154755     110.37405396     110.25070190     110.27646637     110.26484680     110.37275696     110.43302917     110.35441589     110.20453644     109.97808075     109.76790619     109.94098663     110.63311768     112.43188477     113.17934418     110.19852448     108.94921875     108.91075134     108.56829071
       108.49115753     108.31178284     108.44005585     108.57933807     107.88387299     108.15834808     107.70571899     106.12803650     105.40326691     107.51119232     108.52471161     108.77413177     108.58694458     107.95264435     107.65058136     107.57313538     107.58178711     107.54120636     107.63422394     108.23825073
       107.94795227     109.90617371     111.54464722     107.74871063     107.09999084     106.77220917     106.92197418     107.10522461     107.50343323     107.67424011     107.33255768     106.95511627     107.02240753     106.98510742     107.28169250     107.56304932     107.16877747     107.12134552     106.62195587     106.31973267
       106.29791260     106.34714508     106.35503387     106.37298584     106.36258698     106.36708832     106.36737823     106.35131073     111.32994843     111.16017151     111.18899536     111.82492065     111.83975220     110.62554932     110.60068512     110.87101746     111.02720642     111.47661591     111.18033600     110.53071594
       110.73811340     111.15399933     110.94579315     111.13487244     110.82467651     110.31287384     109.83719635     110.22132874     110.34018707     110.33547974     110.36150360     110.28320312     110.36392212     110.44454956     110.29837799     110.18054962     110.01391602     109.86146545     109.95845032     111.11502075
       112.00939941     112.30674744     109.47296143     109.28520203     108.89937592     108.35817719     108.28260803     108.57452393     108.34700012     108.34137726     108.30255127     108.11677551     107.77447510     107.61219788     107.66583252     106.70123291     108.04421997     108.43577576     108.16629791     107.75379181
       107.58601379     107.52838898     107.52429199     107.49668121     107.52678680     107.58892822     107.17630005     108.70388794     112.86898041     107.95623016     106.71577454     106.58555603     106.78102875     107.30905151     107.19596100     106.86306000     107.37957001     107.07346344     106.79883575     106.90776825
       107.05108643     107.06840515     107.00230408     107.01268005     106.38670349     106.16404724     106.20167542     106.21118927     106.22658539     106.27818298     106.27629089     106.25891876     106.28517914     106.24479675     110.48745728     111.46098328     111.69090271     111.68927002     111.59448242     110.92150116
       110.85505676     111.16435242     111.04599762     111.54583740     111.35873413     110.92646790     110.65050507     110.63512421     110.28163910     110.75894165     110.89460754     111.44901276     110.50000000     110.34452057     110.28424835     110.32956696     110.25278473     110.25422668     110.30168152     110.37821198
       110.23393250     110.12256622     109.99008179     109.95307159     110.23526764     111.22928619     113.32365417     111.40486145     109.37014771     109.80290985     108.86273193     108.29694366     108.47321320     108.48790741     108.30333710     108.25186920     108.09756470     107.96114349     107.72798920     107.65935516
       107.47399139     106.76865387     107.08033752     108.33686066     108.28525543     107.87453461     107.36628723     107.29621124     107.55656433     107.62492371     107.51962280     107.46243286     108.00341797     108.27928162     112.68470001     110.50914764     106.61328888     106.53408813     106.64049530     107.09043884
       107.57209778     107.25619507     107.63178253     107.25518799     106.63407135     106.70986176     107.07944489     106.90142822     106.86693573     106.83829498     106.20652771     106.05464172     106.05210114     106.09614563     106.10729218     106.14803314     106.12861633     106.11663818     106.07503510     106.21944427
       109.83397675     111.28704834     111.32148743     111.62641907     111.58236694     111.46601105     111.33345795     111.33396912     110.94818115     111.13069153     110.79528046     110.81140900     110.72356415     110.07689667     109.94531250     110.46405029     110.89208221     111.15447235     110.35852814     110.26530457
       110.13105011     110.22619629     110.29990387     110.31256104     110.28202820     110.28041077     110.18007660     110.02095032     109.90490723     110.04393005     111.31244659     111.72312164     112.78736877     110.27887726     109.25735474     109.04920197     109.04738617     109.04187775     108.68079376     108.39586639
       108.32066345     107.79080963     107.98793030     107.97319794     107.91707611     107.76693726     107.60961151     107.14583588     107.10903931     107.99671173     108.33624268     107.45514679     107.40456390     107.67081451     107.66276550     107.69213104     107.63977814     107.60385132     107.79276276     108.09051514
       111.35137939     112.87429810     106.67370605     106.54885864     106.48487854     106.57884979     107.53872681     107.64414978     107.34243011     107.99726868     107.19816589     106.64623260     107.38350677     106.69760895     106.59128571     106.89001465     106.89239502     106.84812927     106.66627502     106.19000244
       106.05154419     106.14039612     106.09719086     106.03068542     106.02988434     106.00514221     106.01143646     105.99919128     106.19348907     110.23936462     111.34783173     111.26869202     112.23612976     111.25194550     111.44329071     111.47950745     111.35767365     111.21146393     110.83190918     110.74128723
       111.38808441     110.55115509     109.89817047     109.80689240     110.30758667     110.51596069     111.08669281     110.11431122     110.15518188     109.97289276     110.09128571     110.36312103     110.37902832     110.28942108     110.27822113     110.21903229     109.97541809     109.93823242     111.17105103     113.08724213
       112.83057404     111.99722290     109.66895294     108.78440857     108.37863922     108.72162628     108.87191010     108.81391144     108.24833679     107.63591766     107.91958618     107.39620209     107.66857910     107.69017792     107.82807159     107.64215851     107.51441956     107.41680908     107.34055328     108.31110382
       107.84601593     107.87196350     107.70438385     107.49346924     107.39943695     107.59523010     107.82730865     107.69673920     107.56097412     109.25502014     110.27305603     107.37808228     107.45623779     107.47787476     107.67263794     108.19956970     107.65717316     106.88104248     107.48372650     106.79189301
       106.94663239     107.01667023     107.32069397     107.09410095     106.65545654     106.27952576     106.09361267     106.19338226     106.03828430     105.92531586     105.93530273     105.93424988     105.91965485     105.88651276     106.29377747     110.51009369     111.07790375     111.34110260     111.91821289     111.46818542
       111.39488220     111.40355682     111.36415863     111.33123779     110.88288116     110.94484711     111.98212433     110.17864990     109.67803955     109.62331390     110.18913269     109.88574982     109.85587311     109.88319397     110.14809418     110.01033020     109.98032379     110.24855804     110.26923370     110.30367279
       110.35867310     110.33587646     109.95149994     109.89778900     115.33281708     115.26894379     112.83985138     110.60744476     109.63269806     108.71446991     108.29270172     108.28978729     108.38948059     108.37880707     108.15226746     108.01946259     107.38377380     106.95528412     107.72132874     107.90885162
       107.68965149     107.63417053     107.47508240     107.33359528     107.33025360     107.98801422     108.32749176     108.01702118     107.53504181     107.42594147     107.27236176     107.46268463     107.89627075     107.89074707     107.92265320     107.96012878     108.00511169     108.05507660     107.86668396     107.84146881
       107.85686493     107.75106812     107.26811218     106.42907715     107.08415222     106.38406372     106.07107544     106.76716614     107.17954254     107.18527985     106.68906403     106.30762482     106.08023834     106.12834167     106.00943756     105.78518677     105.80679321     105.82639313     105.82173157     105.79290771