# File generated by Flopy version 3.3.4 on 11/01/2021 at 14:39:57.
BEGIN options
  DIGITS  9
END options

BEGIN continuous  FILEOUT  riv.csv
  riv  RIV  riv
END continuous  FILEOUT  riv.csv

