# File generated by Flopy version 3.3.3 on 07/03/2021 at 12:38:44.
BEGIN options
END options

