BEGIN TIMING
  TDIS6  SGN.tdis
END TIMING

BEGIN MODELS
  GWF6   SGN.nam  MF6Model
END MODELS

BEGIN EXCHANGES
END EXCHANGES

BEGIN SOLUTIONGROUP 1
  IMS6 SGN.ims MF6Model

END SOLUTIONGROUP
