# MODFLOW6 Recharge Package
BEGIN OPTIONS
  AUXILIARY  RCHLAYER
  SAVE_FLOWS
  PRINT_FLOWS
END OPTIONS

BEGIN DIMENSIONS
  MAXBOUND 16708
END DIMENSIONS


BEGIN PERIOD 1
    1  0.000000e+00  1
    2  0.000000e+00  1
    3  0.000000e+00  1
    4  0.000000e+00  1
    5  0.000000e+00  1
    6  0.000000e+00  1
    7  0.000000e+00  1
    8  0.000000e+00  1
    9  7.000000e-09  1
    10  7.000000e-09  1
    11  7.000000e-09  1
    12  7.000000e-09  1
    13  0.000000e+00  1
    14  0.000000e+00  1
    15  0.000000e+00  1
    16  0.000000e+00  1
    17  0.000000e+00  1
    18  0.000000e+00  1
    19  0.000000e+00  1
    20  0.000000e+00  1
    21  0.000000e+00  1
    22  0.000000e+00  1
    23  0.000000e+00  1
    24  0.000000e+00  1
    25  0.000000e+00  1
    26  0.000000e+00  1
    27  0.000000e+00  1
    28  0.000000e+00  1
    29  0.000000e+00  1
    30  0.000000e+00  1
    31  0.000000e+00  1
    32  0.000000e+00  1
    33  0.000000e+00  1
    34  7.000000e-09  1
    35  0.000000e+00  1
    36  0.000000e+00  1
    37  0.000000e+00  1
    38  0.000000e+00  1
    39  7.000000e-09  1
    40  7.000000e-09  1
    41  0.000000e+00  1
    42  0.000000e+00  1
    43  0.000000e+00  1
    44  5.000000e-09  1
    45  0.000000e+00  1
    46  5.000000e-09  1
    47  5.000000e-09  1
    48  5.000000e-09  1
    49  5.000000e-09  1
    50  5.000000e-09  1
    51  5.000000e-09  1
    52  5.000000e-09  1
    53  7.000000e-09  1
    54  7.000000e-09  1
    55  7.000000e-09  1
    56  7.000000e-09  1
    57  0.000000e+00  1
    58  0.000000e+00  1
    59  0.000000e+00  1
    60  0.000000e+00  1
    61  0.000000e+00  1
    62  0.000000e+00  1
    63  0.000000e+00  1
    64  0.000000e+00  1
    65  0.000000e+00  1
    66  0.000000e+00  1
    67  0.000000e+00  1
    68  0.000000e+00  1
    69  0.000000e+00  1
    70  7.000000e-09  1
    71  7.000000e-09  1
    72  7.000000e-09  1
    73  7.000000e-09  1
    74  7.000000e-09  1
    75  7.000000e-09  1
    76  7.000000e-09  1
    77  7.000000e-09  1
    78  7.000000e-09  1
    79  7.000000e-09  1
    80  7.000000e-09  1
    81  7.000000e-09  1
    82  7.000000e-09  1
    83  7.000000e-09  1
    84  0.000000e+00  1
    85  0.000000e+00  1
    86  0.000000e+00  1
    87  0.000000e+00  1
    88  0.000000e+00  1
    89  0.000000e+00  1
    90  0.000000e+00  1
    91  0.000000e+00  1
    92  0.000000e+00  1
    93  7.000000e-09  1
    94  7.000000e-09  1
    95  7.000000e-09  1
    96  0.000000e+00  1
    97  0.000000e+00  1
    98  0.000000e+00  1
    99  0.000000e+00  1
    100  0.000000e+00  1
    101  0.000000e+00  1
    102  0.000000e+00  1
    103  0.000000e+00  1
    104  0.000000e+00  1
    105  0.000000e+00  1
    106  0.000000e+00  1
    107  0.000000e+00  1
    108  0.000000e+00  1
    109  0.000000e+00  1
    110  0.000000e+00  1
    111  0.000000e+00  1
    112  0.000000e+00  1
    113  0.000000e+00  1
    114  0.000000e+00  1
    115  0.000000e+00  1
    116  0.000000e+00  1
    117  0.000000e+00  1
    118  7.000000e-09  1
    119  0.000000e+00  1
    120  0.000000e+00  1
    121  0.000000e+00  1
    122  7.000000e-09  1
    123  7.000000e-09  1
    124  0.000000e+00  1
    125  5.000000e-09  1
    126  5.000000e-09  1
    127  5.000000e-09  1
    128  0.000000e+00  1
    129  0.000000e+00  1
    130  5.000000e-09  1
    131  5.000000e-09  1
    132  5.000000e-09  1
    133  5.000000e-09  1
    134  5.000000e-09  1
    135  5.000000e-09  1
    136  7.000000e-09  1
    137  5.000000e-09  1
    138  5.000000e-09  1
    139  7.000000e-09  1
    140  7.000000e-09  1
    141  0.000000e+00  1
    142  0.000000e+00  1
    143  0.000000e+00  1
    144  0.000000e+00  1
    145  0.000000e+00  1
    146  0.000000e+00  1
    147  5.000000e-09  1
    148  5.000000e-09  1
    149  0.000000e+00  1
    150  0.000000e+00  1
    151  0.000000e+00  1
    152  0.000000e+00  1
    153  0.000000e+00  1
    154  7.000000e-09  1
    155  7.000000e-09  1
    156  7.000000e-09  1
    157  7.000000e-09  1
    158  7.000000e-09  1
    159  7.000000e-09  1
    160  7.000000e-09  1
    161  7.000000e-09  1
    162  7.000000e-09  1
    163  7.000000e-09  1
    164  7.000000e-09  1
    165  7.000000e-09  1
    166  7.000000e-09  1
    167  0.000000e+00  1
    168  0.000000e+00  1
    169  0.000000e+00  1
    170  0.000000e+00  1
    171  0.000000e+00  1
    172  0.000000e+00  1
    173  0.000000e+00  1
    174  0.000000e+00  1
    175  0.000000e+00  1
    176  7.000000e-09  1
    177  0.000000e+00  1
    178  0.000000e+00  1
    179  0.000000e+00  1
    180  0.000000e+00  1
    181  0.000000e+00  1
    182  0.000000e+00  1
    183  0.000000e+00  1
    184  0.000000e+00  1
    185  0.000000e+00  1
    186  0.000000e+00  1
    187  0.000000e+00  1
    188  0.000000e+00  1
    189  0.000000e+00  1
    190  0.000000e+00  1
    191  0.000000e+00  1
    192  0.000000e+00  1
    193  0.000000e+00  1
    194  0.000000e+00  1
    195  0.000000e+00  1
    196  0.000000e+00  1
    197  0.000000e+00  1
    198  0.000000e+00  1
    199  0.000000e+00  1
    200  0.000000e+00  1
    201  5.000000e-09  1
    202  0.000000e+00  1
    203  0.000000e+00  1
    204  0.000000e+00  1
    205  7.000000e-09  1
    206  0.000000e+00  1
    207  0.000000e+00  1
    208  0.000000e+00  1
    209  5.000000e-09  1
    210  5.000000e-09  1
    211  5.000000e-09  1
    212  5.000000e-09  1
    213  5.000000e-09  1
    214  5.000000e-09  1
    215  5.000000e-09  1
    216  5.000000e-09  1
    217  5.000000e-09  1
    218  5.000000e-09  1
    219  5.000000e-09  1
    220  5.000000e-09  1
    221  5.000000e-09  1
    222  5.000000e-09  1
    223  7.000000e-09  1
    224  7.000000e-09  1
    225  0.000000e+00  1
    226  0.000000e+00  1
    227  0.000000e+00  1
    228  0.000000e+00  1
    229  5.000000e-09  1
    230  7.000000e-09  1
    231  5.000000e-09  1
    232  0.000000e+00  1
    233  0.000000e+00  1
    234  0.000000e+00  1
    235  0.000000e+00  1
    236  0.000000e+00  1
    237  0.000000e+00  1
    238  7.000000e-09  1
    239  7.000000e-09  1
    240  7.000000e-09  1
    241  7.000000e-09  1
    242  7.000000e-09  1
    243  7.000000e-09  1
    244  7.000000e-09  1
    245  7.000000e-09  1
    246  7.000000e-09  1
    247  7.000000e-09  1
    248  7.000000e-09  1
    249  7.000000e-09  1
    250  0.000000e+00  1
    251  0.000000e+00  1
    252  0.000000e+00  1
    253  0.000000e+00  1
    254  0.000000e+00  1
    255  0.000000e+00  1
    256  0.000000e+00  1
    257  0.000000e+00  1
    258  0.000000e+00  1
    259  7.000000e-09  1
    260  0.000000e+00  1
    261  0.000000e+00  1
    262  0.000000e+00  1
    263  0.000000e+00  1
    264  0.000000e+00  1
    265  0.000000e+00  1
    266  0.000000e+00  1
    267  0.000000e+00  1
    268  0.000000e+00  1
    269  0.000000e+00  1
    270  0.000000e+00  1
    271  0.000000e+00  1
    272  0.000000e+00  1
    273  0.000000e+00  1
    274  0.000000e+00  1
    275  0.000000e+00  1
    276  0.000000e+00  1
    277  0.000000e+00  1
    278  0.000000e+00  1
    279  0.000000e+00  1
    280  0.000000e+00  1
    281  7.000000e-09  1
    282  7.000000e-09  1
    283  7.000000e-09  1
    284  5.000000e-09  1
    285  5.000000e-09  1
    286  0.000000e+00  1
    287  0.000000e+00  1
    288  0.000000e+00  1
    289  0.000000e+00  1
    290  0.000000e+00  1
    291  0.000000e+00  1
    292  5.000000e-09  1
    293  5.000000e-09  1
    294  5.000000e-09  1
    295  5.000000e-09  1
    296  0.000000e+00  1
    297  0.000000e+00  1
    298  0.000000e+00  1
    299  5.000000e-09  1
    300  5.000000e-09  1
    301  5.000000e-09  1
    302  5.000000e-09  1
    303  5.000000e-09  1
    304  0.000000e+00  1
    305  5.000000e-09  1
    306  5.000000e-09  1
    307  7.000000e-09  1
    308  0.000000e+00  1
    309  0.000000e+00  1
    310  0.000000e+00  1
    311  0.000000e+00  1
    312  5.000000e-09  1
    313  7.000000e-09  1
    314  5.000000e-09  1
    315  0.000000e+00  1
    316  0.000000e+00  1
    317  0.000000e+00  1
    318  0.000000e+00  1
    319  0.000000e+00  1
    320  0.000000e+00  1
    321  0.000000e+00  1
    322  0.000000e+00  1
    323  0.000000e+00  1
    324  0.000000e+00  1
    325  7.000000e-09  1
    326  7.000000e-09  1
    327  7.000000e-09  1
    328  7.000000e-09  1
    329  7.000000e-09  1
    330  7.000000e-09  1
    331  7.000000e-09  1
    332  7.000000e-09  1
    333  0.000000e+00  1
    334  0.000000e+00  1
    335  0.000000e+00  1
    336  0.000000e+00  1
    337  0.000000e+00  1
    338  0.000000e+00  1
    339  0.000000e+00  1
    340  0.000000e+00  1
    341  0.000000e+00  1
    342  7.000000e-09  1
    343  0.000000e+00  1
    344  0.000000e+00  1
    345  0.000000e+00  1
    346  0.000000e+00  1
    347  0.000000e+00  1
    348  0.000000e+00  1
    349  0.000000e+00  1
    350  0.000000e+00  1
    351  0.000000e+00  1
    352  0.000000e+00  1
    353  0.000000e+00  1
    354  0.000000e+00  1
    355  0.000000e+00  1
    356  0.000000e+00  1
    357  0.000000e+00  1
    358  0.000000e+00  1
    359  0.000000e+00  1
    360  0.000000e+00  1
    361  0.000000e+00  1
    362  0.000000e+00  1
    363  0.000000e+00  1
    364  7.000000e-09  1
    365  7.000000e-09  1
    366  7.000000e-09  1
    367  5.000000e-09  1
    368  5.000000e-09  1
    369  0.000000e+00  1
    370  7.000000e-09  1
    371  0.000000e+00  1
    372  0.000000e+00  1
    373  0.000000e+00  1
    374  0.000000e+00  1
    375  0.000000e+00  1
    376  7.000000e-09  1
    377  5.000000e-09  1
    378  5.000000e-09  1
    379  0.000000e+00  1
    380  0.000000e+00  1
    381  0.000000e+00  1
    382  5.000000e-09  1
    383  5.000000e-09  1
    384  5.000000e-09  1
    385  5.000000e-09  1
    386  0.000000e+00  1
    387  0.000000e+00  1
    388  5.000000e-09  1
    389  5.000000e-09  1
    390  7.000000e-09  1
    391  0.000000e+00  1
    392  0.000000e+00  1
    393  0.000000e+00  1
    394  0.000000e+00  1
    395  7.000000e-09  1
    396  7.000000e-09  1
    397  5.000000e-09  1
    398  0.000000e+00  1
    399  0.000000e+00  1
    400  0.000000e+00  1
    401  0.000000e+00  1
    402  0.000000e+00  1
    403  0.000000e+00  1
    404  0.000000e+00  1
    405  0.000000e+00  1
    406  0.000000e+00  1
    407  0.000000e+00  1
    408  0.000000e+00  1
    409  0.000000e+00  1
    410  0.000000e+00  1
    411  0.000000e+00  1
    412  7.000000e-09  1
    413  7.000000e-09  1
    414  7.000000e-09  1
    415  7.000000e-09  1
    416  0.000000e+00  1
    417  0.000000e+00  1
    418  0.000000e+00  1
    419  0.000000e+00  1
    420  0.000000e+00  1
    421  0.000000e+00  1
    422  0.000000e+00  1
    423  0.000000e+00  1
    424  0.000000e+00  1
    425  7.000000e-09  1
    426  0.000000e+00  1
    427  0.000000e+00  1
    428  0.000000e+00  1
    429  0.000000e+00  1
    430  0.000000e+00  1
    431  0.000000e+00  1
    432  0.000000e+00  1
    433  0.000000e+00  1
    434  0.000000e+00  1
    435  0.000000e+00  1
    436  0.000000e+00  1
    437  0.000000e+00  1
    438  0.000000e+00  1
    439  0.000000e+00  1
    440  0.000000e+00  1
    441  0.000000e+00  1
    442  0.000000e+00  1
    443  0.000000e+00  1
    444  0.000000e+00  1
    445  0.000000e+00  1
    446  0.000000e+00  1
    447  7.000000e-09  1
    448  7.000000e-09  1
    449  5.000000e-09  1
    450  5.000000e-09  1
    451  0.000000e+00  1
    452  0.000000e+00  1
    453  0.000000e+00  1
    454  0.000000e+00  1
    455  0.000000e+00  1
    456  0.000000e+00  1
    457  0.000000e+00  1
    458  0.000000e+00  1
    459  7.000000e-09  1
    460  7.000000e-09  1
    461  0.000000e+00  1
    462  5.000000e-09  1
    463  5.000000e-09  1
    464  5.000000e-09  1
    465  5.000000e-09  1
    466  5.000000e-09  1
    467  5.000000e-09  1
    468  5.000000e-09  1
    469  0.000000e+00  1
    470  0.000000e+00  1
    471  5.000000e-09  1
    472  5.000000e-09  1
    473  5.000000e-09  1
    474  0.000000e+00  1
    475  0.000000e+00  1
    476  0.000000e+00  1
    477  7.000000e-09  1
    478  7.000000e-09  1
    479  5.000000e-09  1
    480  7.000000e-09  1
    481  0.000000e+00  1
    482  0.000000e+00  1
    483  0.000000e+00  1
    484  0.000000e+00  1
    485  0.000000e+00  1
    486  0.000000e+00  1
    487  0.000000e+00  1
    488  0.000000e+00  1
    489  0.000000e+00  1
    490  0.000000e+00  1
    491  0.000000e+00  1
    492  0.000000e+00  1
    493  0.000000e+00  1
    494  0.000000e+00  1
    495  0.000000e+00  1
    496  0.000000e+00  1
    497  0.000000e+00  1
    498  0.000000e+00  1
    499  0.000000e+00  1
    500  0.000000e+00  1
    501  0.000000e+00  1
    502  0.000000e+00  1
    503  0.000000e+00  1
    504  0.000000e+00  1
    505  0.000000e+00  1
    506  0.000000e+00  1
    507  7.000000e-09  1
    508  7.000000e-09  1
    509  0.000000e+00  1
    510  0.000000e+00  1
    511  0.000000e+00  1
    512  0.000000e+00  1
    513  0.000000e+00  1
    514  0.000000e+00  1
    515  0.000000e+00  1
    516  0.000000e+00  1
    517  0.000000e+00  1
    518  0.000000e+00  1
    519  0.000000e+00  1
    520  0.000000e+00  1
    521  0.000000e+00  1
    522  0.000000e+00  1
    523  0.000000e+00  1
    524  0.000000e+00  1
    525  0.000000e+00  1
    526  0.000000e+00  1
    527  0.000000e+00  1
    528  0.000000e+00  1
    529  0.000000e+00  1
    530  0.000000e+00  1
    531  0.000000e+00  1
    532  0.000000e+00  1
    533  0.000000e+00  1
    534  0.000000e+00  1
    535  0.000000e+00  1
    536  0.000000e+00  1
    537  0.000000e+00  1
    538  0.000000e+00  1
    539  0.000000e+00  1
    540  0.000000e+00  1
    541  0.000000e+00  1
    542  0.000000e+00  1
    543  7.000000e-09  1
    544  0.000000e+00  1
    545  0.000000e+00  1
    546  5.000000e-09  1
    547  5.000000e-09  1
    548  5.000000e-09  1
    549  5.000000e-09  1
    550  5.000000e-09  1
    551  5.000000e-09  1
    552  0.000000e+00  1
    553  5.000000e-09  1
    554  5.000000e-09  1
    555  5.000000e-09  1
    556  5.000000e-09  1
    557  0.000000e+00  1
    558  0.000000e+00  1
    559  0.000000e+00  1
    560  7.000000e-09  1
    561  7.000000e-09  1
    562  5.000000e-09  1
    563  7.000000e-09  1
    564  0.000000e+00  1
    565  0.000000e+00  1
    566  0.000000e+00  1
    567  0.000000e+00  1
    568  0.000000e+00  1
    569  0.000000e+00  1
    570  0.000000e+00  1
    571  0.000000e+00  1
    572  0.000000e+00  1
    573  0.000000e+00  1
    574  0.000000e+00  1
    575  0.000000e+00  1
    576  0.000000e+00  1
    577  3.000000e-09  1
    578  3.000000e-09  1
    579  3.000000e-09  1
    580  3.000000e-09  1
    581  3.000000e-09  1
    582  0.000000e+00  1
    583  0.000000e+00  1
    584  0.000000e+00  1
    585  0.000000e+00  1
    586  0.000000e+00  1
    587  0.000000e+00  1
    588  0.000000e+00  1
    589  7.000000e-09  1
    590  7.000000e-09  1
    591  7.000000e-09  1
    592  0.000000e+00  1
    593  0.000000e+00  1
    594  0.000000e+00  1
    595  0.000000e+00  1
    596  0.000000e+00  1
    597  0.000000e+00  1
    598  0.000000e+00  1
    599  0.000000e+00  1
    600  0.000000e+00  1
    601  5.000000e-09  1
    602  5.000000e-09  1
    603  0.000000e+00  1
    604  0.000000e+00  1
    605  0.000000e+00  1
    606  0.000000e+00  1
    607  0.000000e+00  1
    608  0.000000e+00  1
    609  0.000000e+00  1
    610  0.000000e+00  1
    611  0.000000e+00  1
    612  0.000000e+00  1
    613  0.000000e+00  1
    614  0.000000e+00  1
    615  8.000000e-09  1
    616  7.000000e-09  1
    617  0.000000e+00  1
    618  5.000000e-09  1
    619  5.000000e-09  1
    620  5.000000e-09  1
    621  5.000000e-09  1
    622  5.000000e-09  1
    623  5.000000e-09  1
    624  5.000000e-09  1
    625  5.000000e-09  1
    626  0.000000e+00  1
    627  0.000000e+00  1
    628  5.000000e-09  1
    629  5.000000e-09  1
    630  5.000000e-09  1
    631  5.000000e-09  1
    632  0.000000e+00  1
    633  5.000000e-09  1
    634  5.000000e-09  1
    635  5.000000e-09  1
    636  5.000000e-09  1
    637  5.000000e-09  1
    638  5.000000e-09  1
    639  5.000000e-09  1
    640  0.000000e+00  1
    641  0.000000e+00  1
    642  0.000000e+00  1
    643  7.000000e-09  1
    644  7.000000e-09  1
    645  5.000000e-09  1
    646  7.000000e-09  1
    647  0.000000e+00  1
    648  0.000000e+00  1
    649  0.000000e+00  1
    650  0.000000e+00  1
    651  0.000000e+00  1
    652  0.000000e+00  1
    653  0.000000e+00  1
    654  0.000000e+00  1
    655  0.000000e+00  1
    656  0.000000e+00  1
    657  0.000000e+00  1
    658  0.000000e+00  1
    659  3.000000e-09  1
    660  3.000000e-09  1
    661  3.000000e-09  1
    662  3.000000e-09  1
    663  3.000000e-09  1
    664  3.000000e-09  1
    665  0.000000e+00  1
    666  0.000000e+00  1
    667  0.000000e+00  1
    668  0.000000e+00  1
    669  0.000000e+00  1
    670  0.000000e+00  1
    671  0.000000e+00  1
    672  7.000000e-09  1
    673  7.000000e-09  1
    674  7.000000e-09  1
    675  0.000000e+00  1
    676  0.000000e+00  1
    677  0.000000e+00  1
    678  0.000000e+00  1
    679  0.000000e+00  1
    680  0.000000e+00  1
    681  0.000000e+00  1
    682  0.000000e+00  1
    683  0.000000e+00  1
    684  5.000000e-09  1
    685  5.000000e-09  1
    686  5.000000e-09  1
    687  0.000000e+00  1
    688  0.000000e+00  1
    689  0.000000e+00  1
    690  0.000000e+00  1
    691  0.000000e+00  1
    692  0.000000e+00  1
    693  0.000000e+00  1
    694  0.000000e+00  1
    695  0.000000e+00  1
    696  0.000000e+00  1
    697  0.000000e+00  1
    698  7.000000e-09  1
    699  0.000000e+00  1
    700  0.000000e+00  1
    701  7.000000e-09  1
    702  5.000000e-09  1
    703  5.000000e-09  1
    704  5.000000e-09  1
    705  5.000000e-09  1
    706  5.000000e-09  1
    707  5.000000e-09  1
    708  5.000000e-09  1
    709  5.000000e-09  1
    710  5.000000e-09  1
    711  5.000000e-09  1
    712  5.000000e-09  1
    713  5.000000e-09  1
    714  5.000000e-09  1
    715  5.000000e-09  1
    716  0.000000e+00  1
    717  5.000000e-09  1
    718  5.000000e-09  1
    719  5.000000e-09  1
    720  5.000000e-09  1
    721  5.000000e-09  1
    722  5.000000e-09  1
    723  0.000000e+00  1
    724  0.000000e+00  1
    725  0.000000e+00  1
    726  7.000000e-09  1
    727  7.000000e-09  1
    728  5.000000e-09  1
    729  7.000000e-09  1
    730  0.000000e+00  1
    731  0.000000e+00  1
    732  0.000000e+00  1
    733  0.000000e+00  1
    734  0.000000e+00  1
    735  0.000000e+00  1
    736  0.000000e+00  1
    737  0.000000e+00  1
    738  0.000000e+00  1
    739  0.000000e+00  1
    740  0.000000e+00  1
    741  3.000000e-09  1
    742  3.000000e-09  1
    743  3.000000e-09  1
    744  3.000000e-09  1
    745  3.000000e-09  1
    746  3.000000e-09  1
    747  3.000000e-09  1
    748  0.000000e+00  1
    749  0.000000e+00  1
    750  0.000000e+00  1
    751  0.000000e+00  1
    752  0.000000e+00  1
    753  0.000000e+00  1
    754  0.000000e+00  1
    755  0.000000e+00  1
    756  0.000000e+00  1
    757  0.000000e+00  1
    758  0.000000e+00  1
    759  0.000000e+00  1
    760  0.000000e+00  1
    761  0.000000e+00  1
    762  0.000000e+00  1
    763  0.000000e+00  1
    764  0.000000e+00  1
    765  0.000000e+00  1
    766  7.000000e-09  1
    767  7.000000e-09  1
    768  7.000000e-09  1
    769  0.000000e+00  1
    770  0.000000e+00  1
    771  0.000000e+00  1
    772  0.000000e+00  1
    773  0.000000e+00  1
    774  0.000000e+00  1
    775  0.000000e+00  1
    776  0.000000e+00  1
    777  0.000000e+00  1
    778  0.000000e+00  1
    779  0.000000e+00  1
    780  8.000000e-09  1
    781  7.000000e-09  1
    782  0.000000e+00  1
    783  0.000000e+00  1
    784  7.000000e-09  1
    785  7.000000e-09  1
    786  7.000000e-09  1
    787  5.000000e-09  1
    788  5.000000e-09  1
    789  5.000000e-09  1
    790  5.000000e-09  1
    791  5.000000e-09  1
    792  5.000000e-09  1
    793  0.000000e+00  1
    794  5.000000e-09  1
    795  5.000000e-09  1
    796  5.000000e-09  1
    797  5.000000e-09  1
    798  5.000000e-09  1
    799  0.000000e+00  1
    800  0.000000e+00  1
    801  0.000000e+00  1
    802  5.000000e-09  1
    803  5.000000e-09  1
    804  5.000000e-09  1
    805  5.000000e-09  1
    806  0.000000e+00  1
    807  0.000000e+00  1
    808  5.000000e-09  1
    809  5.000000e-09  1
    810  7.000000e-09  1
    811  7.000000e-09  1
    812  7.000000e-09  1
    813  7.000000e-09  1
    814  0.000000e+00  1
    815  0.000000e+00  1
    816  0.000000e+00  1
    817  0.000000e+00  1
    818  0.000000e+00  1
    819  0.000000e+00  1
    820  0.000000e+00  1
    821  0.000000e+00  1
    822  0.000000e+00  1
    823  3.000000e-09  1
    824  3.000000e-09  1
    825  3.000000e-09  1
    826  3.000000e-09  1
    827  3.000000e-09  1
    828  3.000000e-09  1
    829  3.000000e-09  1
    830  3.000000e-09  1
    831  0.000000e+00  1
    832  0.000000e+00  1
    833  0.000000e+00  1
    834  0.000000e+00  1
    835  0.000000e+00  1
    836  0.000000e+00  1
    837  0.000000e+00  1
    838  0.000000e+00  1
    839  0.000000e+00  1
    840  0.000000e+00  1
    841  0.000000e+00  1
    842  0.000000e+00  1
    843  0.000000e+00  1
    844  0.000000e+00  1
    845  0.000000e+00  1
    846  0.000000e+00  1
    847  0.000000e+00  1
    848  0.000000e+00  1
    849  0.000000e+00  1
    850  0.000000e+00  1
    851  7.000000e-09  1
    852  0.000000e+00  1
    853  0.000000e+00  1
    854  0.000000e+00  1
    855  0.000000e+00  1
    856  0.000000e+00  1
    857  0.000000e+00  1
    858  0.000000e+00  1
    859  0.000000e+00  1
    860  0.000000e+00  1
    861  0.000000e+00  1
    862  0.000000e+00  1
    863  8.000000e-09  1
    864  7.000000e-09  1
    865  0.000000e+00  1
    866  0.000000e+00  1
    867  7.000000e-09  1
    868  5.000000e-09  1
    869  7.000000e-09  1
    870  7.000000e-09  1
    871  7.000000e-09  1
    872  5.000000e-09  1
    873  5.000000e-09  1
    874  7.000000e-09  1
    875  5.000000e-09  1
    876  5.000000e-09  1
    877  5.000000e-09  1
    878  5.000000e-09  1
    879  5.000000e-09  1
    880  5.000000e-09  1
    881  5.000000e-09  1
    882  0.000000e+00  1
    883  0.000000e+00  1
    884  5.000000e-09  1
    885  5.000000e-09  1
    886  5.000000e-09  1
    887  7.000000e-09  1
    888  7.000000e-09  1
    889  0.000000e+00  1
    890  0.000000e+00  1
    891  5.000000e-09  1
    892  5.000000e-09  1
    893  7.000000e-09  1
    894  7.000000e-09  1
    895  5.000000e-09  1
    896  7.000000e-09  1
    897  7.000000e-09  1
    898  0.000000e+00  1
    899  0.000000e+00  1
    900  0.000000e+00  1
    901  0.000000e+00  1
    902  0.000000e+00  1
    903  0.000000e+00  1
    904  0.000000e+00  1
    905  3.000000e-09  1
    906  3.000000e-09  1
    907  3.000000e-09  1
    908  3.000000e-09  1
    909  3.000000e-09  1
    910  3.000000e-09  1
    911  3.000000e-09  1
    912  3.000000e-09  1
    913  3.000000e-09  1
    914  0.000000e+00  1
    915  0.000000e+00  1
    916  0.000000e+00  1
    917  0.000000e+00  1
    918  0.000000e+00  1
    919  0.000000e+00  1
    920  0.000000e+00  1
    921  0.000000e+00  1
    922  0.000000e+00  1
    923  0.000000e+00  1
    924  0.000000e+00  1
    925  0.000000e+00  1
    926  0.000000e+00  1
    927  0.000000e+00  1
    928  0.000000e+00  1
    929  5.000000e-09  1
    930  5.000000e-09  1
    931  0.000000e+00  1
    932  0.000000e+00  1
    933  0.000000e+00  1
    934  0.000000e+00  1
    935  0.000000e+00  1
    936  0.000000e+00  1
    937  0.000000e+00  1
    938  0.000000e+00  1
    939  0.000000e+00  1
    940  0.000000e+00  1
    941  0.000000e+00  1
    942  0.000000e+00  1
    943  0.000000e+00  1
    944  0.000000e+00  1
    945  0.000000e+00  1
    946  8.000000e-09  1
    947  0.000000e+00  1
    948  0.000000e+00  1
    949  7.000000e-09  1
    950  7.000000e-09  1
    951  5.000000e-09  1
    952  5.000000e-09  1
    953  5.000000e-09  1
    954  5.000000e-09  1
    955  5.000000e-09  1
    956  5.000000e-09  1
    957  7.000000e-09  1
    958  7.000000e-09  1
    959  5.000000e-09  1
    960  0.000000e+00  1
    961  5.000000e-09  1
    962  5.000000e-09  1
    963  5.000000e-09  1
    964  5.000000e-09  1
    965  0.000000e+00  1
    966  5.000000e-09  1
    967  5.000000e-09  1
    968  0.000000e+00  1
    969  7.000000e-09  1
    970  7.000000e-09  1
    971  7.000000e-09  1
    972  0.000000e+00  1
    973  0.000000e+00  1
    974  5.000000e-09  1
    975  5.000000e-09  1
    976  5.000000e-09  1
    977  7.000000e-09  1
    978  7.000000e-09  1
    979  7.000000e-09  1
    980  0.000000e+00  1
    981  8.000000e-09  1
    982  0.000000e+00  1
    983  0.000000e+00  1
    984  0.000000e+00  1
    985  0.000000e+00  1
    986  0.000000e+00  1
    987  3.000000e-09  1
    988  3.000000e-09  1
    989  3.000000e-09  1
    990  3.000000e-09  1
    991  3.000000e-09  1
    992  3.000000e-09  1
    993  3.000000e-09  1
    994  3.000000e-09  1
    995  3.000000e-09  1
    996  3.000000e-09  1
    997  0.000000e+00  1
    998  0.000000e+00  1
    999  0.000000e+00  1
    1000  0.000000e+00  1
    1001  0.000000e+00  1
    1002  0.000000e+00  1
    1003  0.000000e+00  1
    1004  0.000000e+00  1
    1005  0.000000e+00  1
    1006  0.000000e+00  1
    1007  0.000000e+00  1
    1008  0.000000e+00  1
    1009  0.000000e+00  1
    1010  0.000000e+00  1
    1011  0.000000e+00  1
    1012  0.000000e+00  1
    1013  0.000000e+00  1
    1014  0.000000e+00  1
    1015  0.000000e+00  1
    1016  0.000000e+00  1
    1017  0.000000e+00  1
    1018  0.000000e+00  1
    1019  0.000000e+00  1
    1020  0.000000e+00  1
    1021  0.000000e+00  1
    1022  0.000000e+00  1
    1023  0.000000e+00  1
    1024  0.000000e+00  1
    1025  0.000000e+00  1
    1026  0.000000e+00  1
    1027  0.000000e+00  1
    1028  0.000000e+00  1
    1029  0.000000e+00  1
    1030  0.000000e+00  1
    1031  0.000000e+00  1
    1032  7.000000e-09  1
    1033  7.000000e-09  1
    1034  5.000000e-09  1
    1035  5.000000e-09  1
    1036  5.000000e-09  1
    1037  5.000000e-09  1
    1038  5.000000e-09  1
    1039  5.000000e-09  1
    1040  0.000000e+00  1
    1041  7.000000e-09  1
    1042  0.000000e+00  1
    1043  5.000000e-09  1
    1044  0.000000e+00  1
    1045  5.000000e-09  1
    1046  5.000000e-09  1
    1047  5.000000e-09  1
    1048  5.000000e-09  1
    1049  5.000000e-09  1
    1050  0.000000e+00  1
    1051  0.000000e+00  1
    1052  7.000000e-09  1
    1053  0.000000e+00  1
    1054  0.000000e+00  1
    1055  0.000000e+00  1
    1056  0.000000e+00  1
    1057  5.000000e-09  1
    1058  5.000000e-09  1
    1059  5.000000e-09  1
    1060  5.000000e-09  1
    1061  7.000000e-09  1
    1062  7.000000e-09  1
    1063  7.000000e-09  1
    1064  0.000000e+00  1
    1065  0.000000e+00  1
    1066  0.000000e+00  1
    1067  0.000000e+00  1
    1068  0.000000e+00  1
    1069  0.000000e+00  1
    1070  3.000000e-09  1
    1071  3.000000e-09  1
    1072  3.000000e-09  1
    1073  3.000000e-09  1
    1074  3.000000e-09  1
    1075  3.000000e-09  1
    1076  3.000000e-09  1
    1077  3.000000e-09  1
    1078  3.000000e-09  1
    1079  3.000000e-09  1
    1080  0.000000e+00  1
    1081  0.000000e+00  1
    1082  0.000000e+00  1
    1083  0.000000e+00  1
    1084  0.000000e+00  1
    1085  0.000000e+00  1
    1086  0.000000e+00  1
    1087  0.000000e+00  1
    1088  0.000000e+00  1
    1089  0.000000e+00  1
    1090  0.000000e+00  1
    1091  0.000000e+00  1
    1092  0.000000e+00  1
    1093  0.000000e+00  1
    1094  0.000000e+00  1
    1095  0.000000e+00  1
    1096  0.000000e+00  1
    1097  0.000000e+00  1
    1098  0.000000e+00  1
    1099  0.000000e+00  1
    1100  0.000000e+00  1
    1101  0.000000e+00  1
    1102  0.000000e+00  1
    1103  0.000000e+00  1
    1104  0.000000e+00  1
    1105  0.000000e+00  1
    1106  0.000000e+00  1
    1107  0.000000e+00  1
    1108  0.000000e+00  1
    1109  0.000000e+00  1
    1110  0.000000e+00  1
    1111  0.000000e+00  1
    1112  7.000000e-09  1
    1113  0.000000e+00  1
    1114  0.000000e+00  1
    1115  5.000000e-09  1
    1116  5.000000e-09  1
    1117  5.000000e-09  1
    1118  5.000000e-09  1
    1119  5.000000e-09  1
    1120  5.000000e-09  1
    1121  5.000000e-09  1
    1122  5.000000e-09  1
    1123  0.000000e+00  1
    1124  0.000000e+00  1
    1125  0.000000e+00  1
    1126  5.000000e-09  1
    1127  5.000000e-09  1
    1128  5.000000e-09  1
    1129  5.000000e-09  1
    1130  5.000000e-09  1
    1131  5.000000e-09  1
    1132  0.000000e+00  1
    1133  0.000000e+00  1
    1134  0.000000e+00  1
    1135  0.000000e+00  1
    1136  0.000000e+00  1
    1137  0.000000e+00  1
    1138  0.000000e+00  1
    1139  0.000000e+00  1
    1140  0.000000e+00  1
    1141  5.000000e-09  1
    1142  5.000000e-09  1
    1143  5.000000e-09  1
    1144  7.000000e-09  1
    1145  7.000000e-09  1
    1146  7.000000e-09  1
    1147  5.000000e-09  1
    1148  0.000000e+00  1
    1149  0.000000e+00  1
    1150  0.000000e+00  1
    1151  0.000000e+00  1
    1152  3.000000e-09  1
    1153  3.000000e-09  1
    1154  3.000000e-09  1
    1155  3.000000e-09  1
    1156  3.000000e-09  1
    1157  3.000000e-09  1
    1158  3.000000e-09  1
    1159  3.000000e-09  1
    1160  3.000000e-09  1
    1161  3.000000e-09  1
    1162  3.000000e-09  1
    1163  0.000000e+00  1
    1164  0.000000e+00  1
    1165  0.000000e+00  1
    1166  0.000000e+00  1
    1167  0.000000e+00  1
    1168  0.000000e+00  1
    1169  0.000000e+00  1
    1170  0.000000e+00  1
    1171  0.000000e+00  1
    1172  0.000000e+00  1
    1173  0.000000e+00  1
    1174  0.000000e+00  1
    1175  0.000000e+00  1
    1176  0.000000e+00  1
    1177  0.000000e+00  1
    1178  0.000000e+00  1
    1179  0.000000e+00  1
    1180  0.000000e+00  1
    1181  0.000000e+00  1
    1182  0.000000e+00  1
    1183  0.000000e+00  1
    1184  0.000000e+00  1
    1185  0.000000e+00  1
    1186  0.000000e+00  1
    1187  0.000000e+00  1
    1188  0.000000e+00  1
    1189  0.000000e+00  1