# MODFLOW6 General Head Boundary Package
BEGIN OPTIONS
  SAVE_FLOWS
  PRINT_FLOWS
END OPTIONS

BEGIN DIMENSIONS
  MAXBOUND 332
END DIMENSIONS


BEGIN PERIOD 1
 1   102.261037   2.500000e+00 
 2   102.268202   2.500000e+00 
 3   102.282533   2.500000e+00 
 4   102.296863   2.500000e+00 
 5   102.311194   2.500000e+00 
 6   102.325524   2.500000e+00 
 7   102.339855   2.500000e+00 
 8   102.354185   2.500000e+00 
 9   102.368516   2.500000e+00 
 10   102.382846   2.500000e+00 
 11   102.397177   2.500000e+00 
 12   102.411507   2.500000e+00 
 13   102.425838   2.500000e+00 
 14   102.440168   2.500000e+00 
 15   102.454499   2.500000e+00 
 16   102.468829   2.500000e+00 
 17   102.483160   2.500000e+00 
 18   102.497490   2.500000e+00 
 19   102.511821   2.500000e+00 
 20   102.526151   2.500000e+00 
 21   102.540482   2.500000e+00 
 22   102.554812   2.500000e+00 
 23   102.569143   2.500000e+00 
 24   102.583473   2.500000e+00 
 25   102.597804   2.500000e+00 
 26   102.612135   2.500000e+00 
 27   102.626465   2.500000e+00 
 28   102.640796   2.500000e+00 
 29   102.655126   2.500000e+00 
 30   102.669457   2.500000e+00 
 31   102.683787   2.500000e+00 
 32   102.698118   2.500000e+00 
 33   102.712448   2.500000e+00 
 34   102.726779   2.500000e+00 
 35   102.741109   2.500000e+00 
 36   102.755440   2.500000e+00 
 37   102.769770   2.500000e+00 
 38   102.780518   2.500000e+00 
 39   102.794848   2.500000e+00 
 40   102.809179   2.500000e+00 
 41   102.823510   2.500000e+00 
 42   102.837840   2.500000e+00 
 43   102.852171   2.500000e+00 
 44   102.866501   2.500000e+00 
 45   102.880832   2.500000e+00 
 46   102.895162   2.500000e+00 
 47   102.907701   2.500000e+00 
 48   102.921136   2.500000e+00 
 49   102.935467   2.500000e+00 
 50   102.949797   2.500000e+00 
 51   102.964128   2.500000e+00 
 52   102.978458   2.500000e+00 
 53   102.992789   2.500000e+00 
 54   103.007119   2.500000e+00 
 55   103.021450   2.500000e+00 
 56   103.035780   2.500000e+00 
 57   103.049608   2.500000e+00 
 58   103.039498   2.500000e+00 
 59   103.027832   2.500000e+00 
 60   103.016167   2.500000e+00 
 61   103.003772   2.500000e+00 
 62   102.992107   2.500000e+00 
 63   102.980441   2.500000e+00 
 64   102.967318   2.500000e+00 
 65   102.955652   2.500000e+00 
 66   102.943987   2.500000e+00 
 67   102.932321   2.500000e+00 
 68   102.920656   2.500000e+00 
 69   102.908990   2.500000e+00 
 70   102.897325   2.500000e+00 
 71   102.885659   2.500000e+00 
 72   102.873994   2.500000e+00 
 73   102.862328   2.500000e+00 
 74   102.850663   2.500000e+00 
 75   102.838997   2.500000e+00 
 76   102.827332   2.500000e+00 
 77   102.815666   2.500000e+00 
 78   102.804001   2.500000e+00 
 79   102.792335   2.500000e+00 
 80   102.780669   2.500000e+00 
 81   102.766088   2.500000e+00 
 82   102.754422   2.500000e+00 
 83   102.742757   2.500000e+00 
 16626   99.455983   4.613703e+00 
 16627   99.428033   4.613703e+00 
 16628   99.411243   4.613703e+00 
 16629   99.377664   4.613703e+00 
 16630   99.344084   4.613703e+00 
 16631   99.310505   4.613703e+00 
 16632   99.276926   4.613703e+00 
 16633   99.243346   4.613703e+00 
 16634   99.209767   4.613703e+00 
 16635   99.176188   4.613703e+00 
 16636   99.142608   4.613703e+00 
 16637   99.109029   4.613703e+00 
 16638   99.075450   4.613703e+00 
 16639   99.041870   4.613703e+00 
 16640   99.008291   4.613703e+00 
 16641   98.974712   4.613703e+00 
 16642   98.941132   4.613703e+00 
 16643   98.907553   4.613703e+00 
 16644   98.873973   4.613703e+00 
 16645   98.840394   4.613703e+00 
 16646   98.806815   4.613703e+00 
 16647   98.773235   4.613703e+00 
 16648   98.739656   4.613703e+00 
 16649   98.714472   4.613703e+00 
 16650   98.680892   4.613703e+00 
 16651   98.647313   4.613703e+00 
 16652   98.613734   4.613703e+00 
 16653   98.580154   4.613703e+00 
 16654   98.546575   4.613703e+00 
 16655   98.512995   4.613703e+00 
 16656   98.490892   4.613703e+00 
 16657   98.465039   4.613703e+00 
 16658   98.430568   4.613703e+00 
 16659   98.396097   4.613703e+00 
 16660   98.361626   4.613703e+00 
 16661   98.327156   4.613703e+00 
 16662   98.292685   4.613703e+00 
 16663   98.262523   4.613703e+00 
 16664   98.228052   4.613703e+00 
 16665   98.193582   4.613703e+00 
 16666   98.159111   4.613703e+00 
 16667   98.124640   4.613703e+00 
 16668   98.090169   4.613703e+00 
 16669   98.055699   4.613703e+00 
 16670   98.023382   4.613703e+00 
 16671   97.988912   4.613703e+00 
 16672   97.954441   4.613703e+00 
 16673   97.919970   4.613703e+00 
 16674   97.885500   4.613703e+00 
 16675   97.851029   4.613703e+00 
 16676   97.816558   4.613703e+00 
 16677   97.782087   4.613703e+00 
 16678   97.747617   4.613703e+00 
 16679   97.713146   4.613703e+00 
 16680   97.664751   4.613703e+00 
 16681   97.594403   4.613703e+00 
 16682   97.524054   4.613703e+00 
 16683   97.496806   4.613703e+00 
 16684   97.490742   4.613703e+00 
 16685   97.484677   4.613703e+00 
 16686   97.478612   4.613703e+00 
 16687   97.472168   4.613703e+00 
 16688   97.466104   4.613703e+00 
 16689   97.460039   4.613703e+00 
 16690   97.453974   4.613703e+00 
 16691   97.447151   4.613703e+00 
 16692   97.441086   4.613703e+00 
 16693   97.435022   4.613703e+00 
 16694   97.428957   4.613703e+00 
 16695   97.422892   4.613703e+00 
 16696   97.416827   4.613703e+00 
 16697   97.410763   4.613703e+00 
 16698   97.404698   4.613703e+00 
 16699   97.398633   4.613703e+00 
 16700   97.392568   4.613703e+00 
 16701   97.386504   4.613703e+00 
 16702   97.380439   4.613703e+00 
 16703   97.374374   4.613703e+00 
 16704   97.368309   4.613703e+00 
 16705   97.362245   4.613703e+00 
 16706   97.354664   4.613703e+00 
 16707   97.348599   4.613703e+00 
 16708   97.342534   4.613703e+00 
 33417   101.011037   2.500000e+00 
 33418   101.018202   2.500000e+00 
 33419   101.032533   2.500000e+00 
 33420   101.046863   2.500000e+00 
 33421   101.061194   2.500000e+00 
 33422   101.075524   2.500000e+00 
 33423   101.089855   2.500000e+00 
 33424   101.104185   2.500000e+00 
 33425   101.118516   2.500000e+00 
 33426   101.132846   2.500000e+00 
 33427   101.147177   2.500000e+00 
 33428   101.161507   2.500000e+00 
 33429   101.175838   2.500000e+00 
 33430   101.190168   2.500000e+00 
 33431   101.204499   2.500000e+00 
 33432   101.218829   2.500000e+00 
 33433   101.233160   2.500000e+00 
 33434   101.247490   2.500000e+00 
 33435   101.261821   2.500000e+00 
 33436   101.276151   2.500000e+00 
 33437   101.290482   2.500000e+00 
 33438   101.304812   2.500000e+00 
 33439   101.319143   2.500000e+00 
 33440   101.333473   2.500000e+00 
 33441   101.347804   2.500000e+00 
 33442   101.362135   2.500000e+00 
 33443   101.376465   2.500000e+00 
 33444   101.390796   2.500000e+00 
 33445   101.405126   2.500000e+00 
 33446   101.419457   2.500000e+00 
 33447   101.433787   2.500000e+00 
 33448   101.448118   2.500000e+00 
 33449   101.462448   2.500000e+00 
 33450   101.476779   2.500000e+00 
 33451   101.491109   2.500000e+00 
 33452   101.505440   2.500000e+00 
 33453   101.519770   2.500000e+00 
 33454   101.530518   2.500000e+00 
 33455   101.544848   2.500000e+00 
 33456   101.559179   2.500000e+00 
 33457   101.573510   2.500000e+00 
 33458   101.587840   2.500000e+00 
 33459   101.602171   2.500000e+00 
 33460   101.616501   2.500000e+00 
 33461   101.630832   2.500000e+00 
 33462   101.645162   2.500000e+00 
 33463   101.657701   2.500000e+00 
 33464   101.671136   2.500000e+00 
 33465   101.685467   2.500000e+00 
 33466   101.699797   2.500000e+00 
 33467   101.714128   2.500000e+00 
 33468   101.728458   2.500000e+00 
 33469   101.742789   2.500000e+00 
 33470   101.757119   2.500000e+00 
 33471   101.771450   2.500000e+00 
 33472   101.785780   2.500000e+00 
 33473   101.799608   2.500000e+00 
 33474   101.789498   2.500000e+00 
 33475   101.777832   2.500000e+00 
 33476   101.766167   2.500000e+00 
 33477   101.753772   2.500000e+00 
 33478   101.742107   2.500000e+00 
 33479   101.730441   2.500000e+00 
 33480   101.717318   2.500000e+00 
 33481   101.705652   2.500000e+00 
 33482   101.693987   2.500000e+00 
 33483   101.682321   2.500000e+00 
 33484   101.670656   2.500000e+00 
 33485   101.658990   2.500000e+00 
 33486   101.647325   2.500000e+00 
 33487   101.635659   2.500000e+00 
 33488   101.623994   2.500000e+00 
 33489   101.612328   2.500000e+00 
 33490   101.600663   2.500000e+00 
 33491   101.588997   2.500000e+00 
 33492   101.577332   2.500000e+00 
 33493   101.565666   2.500000e+00 
 33494   101.554001   2.500000e+00 
 33495   101.542335   2.500000e+00 
 33496   101.530669   2.500000e+00 
 33497   101.516088   2.500000e+00 
 33498   101.504422   2.500000e+00 
 33499   101.492757   2.500000e+00 
 50042   96.455983   2.500000e+00 
 50043   96.428033   2.500000e+00 
 50044   96.411243   2.500000e+00 
 50045   96.377664   2.500000e+00 
 50046   96.344084   2.500000e+00 
 50047   96.310505   2.500000e+00 
 50048   96.276926   2.500000e+00 
 50049   96.243346   2.500000e+00 
 50050   96.209767   2.500000e+00 
 50051   96.176188   2.500000e+00 
 50052   96.142608   2.500000e+00 
 50053   96.109029   2.500000e+00 
 50054   96.075450   2.500000e+00 
 50055   96.041870   2.500000e+00 
 50056   96.008291   2.500000e+00 
 50057   95.974712   2.500000e+00 
 50058   95.941132   2.500000e+00 
 50059   95.907553   2.500000e+00 
 50060   95.873973   2.500000e+00 
 50061   95.840394   2.500000e+00 
 50062   95.806815   2.500000e+00 
 50063   95.773235   2.500000e+00 
 50064   95.739656   2.500000e+00 
 50065   95.714472   2.500000e+00 
 50066   95.680892   2.500000e+00 
 50067   95.647313   2.500000e+00 
 50068   95.613734   2.500000e+00 
 50069   95.580154   2.500000e+00 
 50070   95.546575   2.500000e+00 
 50071   95.512995   2.500000e+00 
 50072   95.490892   2.500000e+00 
 50073   95.465039   2.500000e+00 
 50074   95.430568   2.500000e+00 
 50075   95.396097   2.500000e+00 
 50076   95.361626   2.500000e+00 
 50077   95.327156   2.500000e+00 
 50078   95.292685   2.500000e+00 
 50079   95.262523   2.500000e+00 
 50080   95.228052   2.500000e+00 
 50081   95.193582   2.500000e+00 
 50082   95.159111   2.500000e+00 
 50083   95.124640   2.500000e+00 
 50084   95.090169   2.500000e+00 
 50085   95.055699   2.500000e+00 
 50086   95.023382   2.500000e+00 
 50087   94.988912   2.500000e+00 
 50088   94.954441   2.500000e+00 
 50089   94.919970   2.500000e+00 
 50090   94.885500   2.500000e+00 
 50091   94.851029   2.500000e+00 
 50092   94.816558   2.500000e+00 
 50093   94.782087   2.500000e+00 
 50094   94.747617   2.500000e+00 
 50095   94.713146   2.500000e+00 
 50096   94.664751   2.500000e+00 
 50097   94.594403   2.500000e+00 
 50098   94.524054   2.500000e+00 
 50099   94.496806   2.500000e+00 
 50100   94.490742   2.500000e+00 
 50101   94.484677   2.500000e+00 
 50102   94.478612   2.500000e+00 
 50103   94.472168   2.500000e+00 
 50104   94.466104   2.500000e+00 
 50105   94.460039   2.500000e+00 
 50106   94.453974   2.500000e+00 
 50107   94.447151   2.500000e+00 
 50108   94.441086   2.500000e+00 
 50109   94.435022   2.500000e+00 
 50110   94.428957   2.500000e+00 
 50111   94.422892   2.500000e+00 
 50112   94.416827   2.500000e+00 
 50113   94.410763   2.500000e+00 
 50114   94.404698   2.500000e+00 
 50115   94.398633   2.500000e+00 
 50116   94.392568   2.500000e+00 
 50117   94.386504   2.500000e+00 
 50118   94.380439   2.500000e+00 
 50119   94.374374   2.500000e+00 
 50120   94.368309   2.500000e+00 
 50121   94.362245   2.500000e+00 
 50122   94.354664   2.500000e+00 
 50123   94.348599   2.500000e+00 
 50124   94.342534   2.500000e+00 

END PERIOD
