BEGIN OPTIONS
  LIST SGN.lst
  PRINT_FLOWS
  SAVE_FLOWS
  NEWTON
END OPTIONS

BEGIN PACKAGES
  DISU6  SGN.dis
  IC6 SGN.ic6
  OC6 SGN.oc6
  NPF6 SGN.npf
  RIV6 SGN.riv RIV-1
  GHB6 SGN.ghb GHB-1
  WEL6 SGN.wel WEL-1
  RCH6 SGN.rch RCH-1
END PACKAGES
