# MODFLOW6 River Package
BEGIN OPTIONS
  SAVE_FLOWS
  PRINT_FLOWS
END OPTIONS

BEGIN DIMENSIONS
  MAXBOUND 203
END DIMENSIONS


BEGIN PERIOD 1
 146   107.320000    2.500000e-03   106.320000  
 229   107.274002    2.500000e-03   106.274002  
 312   107.188004    2.500000e-03   106.188004  
 395   106.982002    2.500000e-03   105.982002  
 478   107.044998    2.500000e-03   106.044998  
 479   107.026001    2.500000e-03   106.026001  
 562   107.000999    2.500000e-03   106.000999  
 645   106.864998    2.500000e-03   105.864998  
 728   106.838997    2.500000e-03   105.838997  
 811   106.722000    2.500000e-03   105.722000  
 894   106.596001    2.500000e-03   105.596001  
 895   106.578003    2.500000e-03   105.578003  
 978   106.540001    2.500000e-03   105.540001  
 979   106.432999    2.500000e-03   105.432999  
 1062   106.384003    2.500000e-03   105.384003  
 1063   106.414001    2.500000e-03   105.414001  
 1064   106.297997    2.500000e-03   105.297997  
 1147   106.239998    2.500000e-03   105.239998  
 1229   106.123001    2.500000e-03   105.123001  
 1312   106.126999    2.500000e-03   105.126999  
 1395   106.081001    2.500000e-03   105.081001  
 1479   105.987000    2.500000e-03   104.987000  
 1562   105.850998    2.500000e-03   104.850998  
 1645   105.734001    2.500000e-03   104.734001  
 1728   105.748001    2.500000e-03   104.748001  
 1811   105.781998    2.500000e-03   104.781998  
 1895   105.597000    2.500000e-03   104.597000  
 1978   105.500000    2.500000e-03   104.500000  
 1979   105.443001    2.500000e-03   104.443001  
 2062   105.486000    2.500000e-03   104.486000  
 8771   102.671997    2.500000e-03   101.671997  
 9277   102.597000    2.500000e-03   101.597000  
 9776   104.181000    2.500000e-03   103.181000  
 9777   104.511002    2.500000e-03   103.511002  
 10279   102.724998    2.500000e-03   101.724998  
 10764   102.639999    2.500000e-03   101.639999  
 11234   102.602997    2.500000e-03   101.602997  
 11691   102.887001    2.500000e-03   101.887001  
 12134   102.782997    2.500000e-03   101.782997  
 12135   102.855003    2.500000e-03   101.855003  
 12563   102.556999    2.500000e-03   101.556999  
 12967   102.750999    2.500000e-03   101.750999  
 13343   102.606003    2.500000e-03   101.606003  
 13344   102.724998    2.500000e-03   101.724998  
 13714   102.591003    2.500000e-03   101.591003  
 14049   102.485001    2.500000e-03   101.485001  
 14341   102.619003    2.500000e-03   101.619003  
 14571   100.983002    2.500000e-03   99.983002  
 14342   101.130997    2.500000e-03   100.130997  
 14748   100.836998    2.500000e-03   99.836998  
 14915   100.781998    2.500000e-03   99.781998  
 15067   100.706001    2.500000e-03   99.706001  
 15213   100.689003    2.500000e-03   99.689003  
 15214   100.722000    2.500000e-03   99.722000  
 15351   100.635002    2.500000e-03   99.635002  
 15482   100.588997    2.500000e-03   99.588997  
 15601   100.570999    2.500000e-03   99.570999  
 15602   100.513000    2.500000e-03   99.513000  
 15703   100.498001    2.500000e-03   99.498001  
 15786   100.472000    2.500000e-03   99.472000  
 15869   100.427002    2.500000e-03   99.427002  
 15953   100.231003    2.500000e-03   99.231003  
 16036   100.484001    2.500000e-03   99.484001  
 16119   100.369003    2.500000e-03   99.369003  
 16202   100.372002    2.500000e-03   99.372002  
 16203   100.322998    2.500000e-03   99.322998  
 16286   100.297997    2.500000e-03   99.297997  
 16369   100.210999    2.500000e-03   99.210999  
 16452   100.185997    2.500000e-03   99.185997  
 16535   100.230003    2.500000e-03   99.230003  
 16618   99.994003    2.500000e-03   98.994003  
 2308   105.561996    6.250000e-04   104.561996  
 2309   105.561996    6.250000e-04   104.561996  
 2310   105.561996    6.250000e-04   104.561996  
 2311   105.561996    6.250000e-04   104.561996  
 2172   105.459000    6.250000e-04   104.459000  
 2173   105.459000    6.250000e-04   104.459000  
 2174   105.459000    6.250000e-04   104.459000  
 2175   105.459000    6.250000e-04   104.459000  
 2468   105.217003    6.250000e-04   104.217003  
 2469   105.217003    6.250000e-04   104.217003  
 2470   105.217003    6.250000e-04   104.217003  
 2471   105.217003    6.250000e-04   104.217003  
 2472   105.508003    6.250000e-04   104.508003  
 2473   105.508003    6.250000e-04   104.508003  
 2474   105.508003    6.250000e-04   104.508003  
 2475   105.508003    6.250000e-04   104.508003  
 2476   105.378998    6.250000e-04   104.378998  
 2477   105.378998    6.250000e-04   104.378998  
 2478   105.378998    6.250000e-04   104.378998  
 2479   105.378998    6.250000e-04   104.378998  
 2480   105.188004    6.250000e-04   104.188004  
 2481   105.188004    6.250000e-04   104.188004  
 2482   105.188004    6.250000e-04   104.188004  
 2483   105.188004    6.250000e-04   104.188004  
 2484   105.317001    6.250000e-04   104.317001  
 2485   105.317001    6.250000e-04   104.317001  
 2486   105.317001    6.250000e-04   104.317001  
 2487   105.317001    6.250000e-04   104.317001  
 2488   105.317001    6.250000e-04   104.317001  
 2489   105.317001    6.250000e-04   104.317001  
 2490   105.317001    6.250000e-04   104.317001  
 2491   105.317001    6.250000e-04   104.317001  
 2492   105.257004    6.250000e-04   104.257004  
 2493   105.257004    6.250000e-04   104.257004  
 2494   105.257004    6.250000e-04   104.257004  
 2495   105.257004    6.250000e-04   104.257004  
 2496   105.299004    6.250000e-04   104.299004  
 2497   105.299004    6.250000e-04   104.299004  
 2498   105.299004    6.250000e-04   104.299004  
 2499   105.299004    6.250000e-04   104.299004  
 2663   105.121002    6.250000e-04   104.121002  
 2664   105.121002    6.250000e-04   104.121002  
 2665   105.121002    6.250000e-04   104.121002  
 2666   105.121002    6.250000e-04   104.121002  
 2667   105.392998    6.250000e-04   104.392998  
 2668   105.392998    6.250000e-04   104.392998  
 2669   105.392998    6.250000e-04   104.392998  
 2670   105.392998    6.250000e-04   104.392998  
 2837   105.283997    6.250000e-04   104.283997  
 2838   105.283997    6.250000e-04   104.283997  
 2839   105.283997    6.250000e-04   104.283997  
 2840   105.283997    6.250000e-04   104.283997  
 2841   105.276001    6.250000e-04   104.276001  
 2842   105.276001    6.250000e-04   104.276001  
 2843   105.276001    6.250000e-04   104.276001  
 2844   105.276001    6.250000e-04   104.276001  
 3017   105.278000    6.250000e-04   104.278000  
 3018   105.278000    6.250000e-04   104.278000  
 3019   105.278000    6.250000e-04   104.278000  
 3020   105.278000    6.250000e-04   104.278000  
 3021   105.069000    6.250000e-04   104.069000  
 3022   105.069000    6.250000e-04   104.069000  
 3023   105.069000    6.250000e-04   104.069000  
 3024   105.069000    6.250000e-04   104.069000  
 3203   105.133003    6.250000e-04   104.133003  
 3204   105.133003    6.250000e-04   104.133003  
 3205   105.133003    6.250000e-04   104.133003  
 3206   105.133003    6.250000e-04   104.133003  
 3395   105.016998    6.250000e-04   104.016998  
 3396   105.016998    6.250000e-04   104.016998  
 3397   105.016998    6.250000e-04   104.016998  
 3398   105.016998    6.250000e-04   104.016998  
 3606   105.112999    6.250000e-04   104.112999  
 3607   105.112999    6.250000e-04   104.112999  
 3608   105.112999    6.250000e-04   104.112999  
 3609   105.112999    6.250000e-04   104.112999  
 3908   105.186996    6.250000e-04   104.186996  
 3909   105.186996    6.250000e-04   104.186996  
 3910   105.186996    6.250000e-04   104.186996  
 3911   105.186996    6.250000e-04   104.186996  
 4236   103.250999    6.250000e-04   102.250999  
 4237   103.250999    6.250000e-04   102.250999  
 4238   103.250999    6.250000e-04   102.250999  
 4239   103.250999    6.250000e-04   102.250999  
 4240   103.290001    6.250000e-04   102.290001  
 4241   103.290001    6.250000e-04   102.290001  
 4242   103.290001    6.250000e-04   102.290001  
 4243   103.290001    6.250000e-04   102.290001  
 4589   103.253998    6.250000e-04   102.253998  
 4590   103.253998    6.250000e-04   102.253998  
 4591   103.253998    6.250000e-04   102.253998  
 4592   103.253998    6.250000e-04   102.253998  
 4585   103.165001    6.250000e-04   102.165001  
 4586   103.165001    6.250000e-04   102.165001  
 4587   103.165001    6.250000e-04   102.165001  
 4588   103.165001    6.250000e-04   102.165001  
 4968   103.127998    6.250000e-04   102.127998  
 4969   103.127998    6.250000e-04   102.127998  
 4970   103.127998    6.250000e-04   102.127998  
 4971   103.127998    6.250000e-04   102.127998  
 5375   103.083000    6.250000e-04   102.083000  
 5376   103.083000    6.250000e-04   102.083000  
 5377   103.083000    6.250000e-04   102.083000  
 5378   103.083000    6.250000e-04   102.083000  
 5785   103.097000    6.250000e-04   102.097000  
 5786   103.097000    6.250000e-04   102.097000  
 5787   103.097000    6.250000e-04   102.097000  
 5788   103.097000    6.250000e-04   102.097000  
 6234   103.129997    6.250000e-04   102.129997  
 6235   103.129997    6.250000e-04   102.129997  
 6236   103.129997    6.250000e-04   102.129997  
 6237   103.129997    6.250000e-04   102.129997  
 6722   102.956001    6.250000e-04   101.956001  
 6723   102.956001    6.250000e-04   101.956001  
 6724   102.956001    6.250000e-04   101.956001  
 6725   102.956001    6.250000e-04   101.956001  
 6718   102.917999    6.250000e-04   101.917999  
 6719   102.917999    6.250000e-04   101.917999  
 6720   102.917999    6.250000e-04   101.917999  
 6721   102.917999    6.250000e-04   101.917999  
 7221   102.849998    6.250000e-04   101.849998  
 7222   102.849998    6.250000e-04   101.849998  
 7223   102.849998    6.250000e-04   101.849998  
 7224   102.849998    6.250000e-04   101.849998  
 7742   102.774002    6.250000e-04   101.774002  
 7743   102.774002    6.250000e-04   101.774002  
 7744   102.774002    6.250000e-04   101.774002  
 7745   102.774002    6.250000e-04   101.774002  
 8259   102.768997    6.250000e-04   101.768997  
 8260   102.768997    6.250000e-04   101.768997  
 8261   102.768997    6.250000e-04   101.768997  
 8262   102.768997    6.250000e-04   101.768997  

END PERIOD
