# MODFLOW6 Well Boundary Package
BEGIN OPTIONS
  SAVE_FLOWS
  PRINT_FLOWS
  AUTO_FLOW_REDUCE 0.000000e+00
END OPTIONS

BEGIN DIMENSIONS
  MAXBOUND 194
END DIMENSIONS


BEGIN PERIOD 1
 4476 0.000000e+00
 4475 0.000000e+00
 4480 0.000000e+00
 4481 0.000000e+00
 4855 0.000000e+00
 5256 0.000000e+00
 5673 0.000000e+00
 5655 0.000000e+00
 5244 0.000000e+00
 5239 0.000000e+00
 5222 0.000000e+00
 9543 0.000000e+00
 9560 0.000000e+00
 10052 0.000000e+00
 10062 0.000000e+00
 10079 0.000000e+00
 10576 0.000000e+00
 10581 0.000000e+00
 10598 0.000000e+00
 11065 0.000000e+00
 11070 0.000000e+00
 4833 0.000000e+00
 12188 0.000000e+00
 12635 0.000000e+00
 12636 0.000000e+00
 12636 0.000000e+00
 12637 0.000000e+00
 13789 0.000000e+00
 13792 0.000000e+00
 13792 0.000000e+00
 13791 0.000000e+00
 13794 0.000000e+00
 13026 0.000000e+00
 13029 0.000000e+00
 13030 0.000000e+00
 12628 0.000000e+00
 13773 0.000000e+00
 14100 0.000000e+00
 14099 0.000000e+00
 14102 0.000000e+00
 41348 0.000000e+00
 41345 0.000000e+00
 9406 0.000000e+00
 10175 0.000000e+00
 10448 0.000000e+00
 12187 0.000000e+00
 12187 0.000000e+00
 12613 0.000000e+00
 12613 0.000000e+00
 13393 0.000000e+00
 13393 0.000000e+00
 13391 0.000000e+00
 13391 0.000000e+00
 2095 -4.999899e-03
 18803 -1.007728e-07
 1847 -4.999930e-03
 18555 -6.976608e-08
 35532 -1.000000e-03
 1716 -9.951086e-03
 18424 -1.486941e-07
 35132 -1.004877e-02
 1373 -2.140000e-02
 2529 -3.000000e-03
 35049 -2.000000e-02
 1549 -3.162162e-02
 18257 -6.216572e-07
 34965 -1.837776e-02
 400 0.000000e+00
 3050 0.000000e+00
 5168 -5.000000e-03
 5558 0.000000e+00
 1345 -1.000000e-02
 1507 -8.000000e-03
 1430 -1.200000e-02
 460 -2.250000e-02
 460 -2.250000e-02
 3626 0.000000e+00
 6255 -2.029547e-03
 22963 -5.191671e-08
 39671 -6.010401e-03
 5808 -7.137116e-04
 22516 -4.107087e-08
 39224 -7.326247e-03
 40664 -8.040000e-03
 17340 -4.875054e-09
 34048 -1.209000e-02
 17251 -8.829437e-08
 33959 -1.208991e-02
 17417 -7.009445e-08
 34125 -1.208993e-02
 34374 -1.209000e-02
 17414 -1.546902e-07
 34122 -1.208985e-02
 15529 0.000000e+00
 19033 -1.091667e-08
 35741 -1.043999e-02
 18885 -4.143646e-08
 35593 -1.043996e-02
 7250 -1.193153e-03
 23958 -3.898386e-08
 40666 -6.846808e-03
 8280 -6.819304e-04
 24988 -3.906281e-08
 41696 -7.358030e-03
 17580 -4.068399e-08
 34288 -1.208996e-02
 17828 -4.058224e-08
 34536 -1.208996e-02
 17248 -2.300422e-08
 33956 -1.208998e-02
 17918 -1.164922e-08
 34626 -1.208999e-02
 13768 0.000000e+00
 14100 0.000000e+00
 7186 0.000000e+00
 7191 0.000000e+00
 1299 -8.000000e-03
 1383 -8.000000e-03
 1466 -8.000000e-03
 1462 6.000000e-03
 1462 6.000000e-03
 1546 6.000000e-03
 1546 6.000000e-03
 1712 2.400000e-02
 1538 -2.140000e-02
 1289 2.140000e-02
 1454 2.140000e-02
 1713 -6.000000e-03
 1713 -5.999999e-03
 18421 -9.582241e-10
 1630 6.000000e-03
 1713 6.000000e-03
 1712 1.200000e-02
 1796 0.000000e+00
 1796 0.000000e+00
 1713 8.000000e-03
 4636 0.000000e+00
 4283 0.000000e+00
 4284 0.000000e+00
 4285 0.000000e+00
 4636 0.000000e+00
 4637 0.000000e+00
 6787 0.000000e+00
 6787 0.000000e+00
 7294 0.000000e+00
 6788 0.000000e+00
 7295 0.000000e+00
 6791 0.000000e+00
 6791 0.000000e+00
 6790 0.000000e+00
 12188 6.000000e-03
 1497 0.000000e+00
 1497 0.000000e+00
 359 0.000000e+00
 359 0.000000e+00
 443 0.000000e+00
 443 0.000000e+00
 444 0.000000e+00
 444 0.000000e+00
 444 0.000000e+00
 445 0.000000e+00
 1597 0.000000e+00
 1679 0.000000e+00
 1597 0.000000e+00
 1680 0.000000e+00
 4796 0.000000e+00
 16273 0.000000e+00
 16022 0.000000e+00
 16185 0.000000e+00
 16101 0.000000e+00
 500 -3.500000e-03
 500 0.000000e+00
 10814 0.000000e+00
 10814 0.000000e+00
 10814 0.000000e+00
 11747 0.000000e+00
 11747 0.000000e+00
 11747 0.000000e+00
 11746 0.000000e+00
 7210 -4.401332e-03
 23918 -1.905802e-08
 40626 -5.098649e-03
 6683 -2.863210e-03
 23391 -2.726731e-08
 40099 -6.636763e-03
 7216 -4.412632e-03
 23924 -1.878183e-08
 40632 -5.087349e-03
 6701 -4.397967e-03
 23409 -1.994531e-08
 40117 -5.102014e-03
 5332 -2.913088e-03
 22040 -2.944726e-08
 38748 -6.586883e-03

END PERIOD
