# MODFLOW6 Output Control
BEGIN OPTIONS
  BUDGET FILEOUT SGN.cbb
  HEAD FILEOUT SGN.hds
END OPTIONS


BEGIN PERIOD 1
  SAVE HEAD FREQUENCY 1
  SAVE BUDGET FREQUENCY 1
  PRINT BUDGET FREQUENCY 1
END PERIOD
