BEGIN OPTIONS
  TIME_UNITS SECONDS
END OPTIONS

BEGIN DIMENSIONS
  NPER  1
END DIMENSIONS

BEGIN PERIODDATA
  10.000000  1  1.200000
END PERIODDATA
