# File generated by Flopy version 3.3.3 on 07/03/2021 at 17:29:10.
BEGIN options
END options

BEGIN griddata
  diffc
    CONSTANT  1.02000000E-09
  alh
    CONSTANT      30.00000000
  ath1
    CONSTANT       3.00000000
  atv
    CONSTANT       3.00000000
END griddata

