# File generated by Flopy version 3.3.3 on 07/03/2021 at 17:29:10.
BEGIN options
  BUDGET  FILEOUT  gwt-sgn.cbc
  CONCENTRATION  FILEOUT  gwt-sgn.ucn
  CONCENTRATION  PRINT_FORMAT  COLUMNS  10  WIDTH  15  DIGITS  6  general
END options

BEGIN period  1
  SAVE  concentration  last
  SAVE  budget  last
  PRINT  concentration  last
  PRINT  budget  last
END period  1

