# File generated by Flopy version 3.3.3 on 07/03/2021 at 17:29:10.
BEGIN options
  SCHEME  upstream
END options

