# File generated by Flopy version 3.3.3 on 07/03/2021 at 17:29:08.
BEGIN options
  BOUNDNAMES
  OBS6  FILEIN  sgn.ghb.obs
END options

BEGIN dimensions
  MAXBOUND  722
END dimensions

BEGIN period  1
    OPEN/CLOSE  'sgn.ghb_stress_period_data_1.txt'
END period  1

