# File generated by Flopy version 3.3.3 on 07/03/2021 at 17:29:07.
BEGIN options
  DIGITS  9
END options

BEGIN continuous  FILEOUT  riv.csv
  riv  riv  riv
END continuous  FILEOUT  riv.csv

