# File generated by Flopy version 3.3.3 on 07/03/2021 at 17:24:38.
BEGIN griddata
  strt
    CONSTANT       0.00000000
END griddata

