# File generated by Flopy version 3.3.3 on 07/03/2021 at 17:24:38.
BEGIN options
  BUDGET  FILEOUT  gwt-sgn.cbc
  CONCENTRATION  FILEOUT  gwt-sgn.ucn
  CONCENTRATION  PRINT_FORMAT  COLUMNS  10  WIDTH  15  DIGITS  6  GENERAL
END options

BEGIN period  1
  SAVE  CONCENTRATION  LAST
  SAVE  BUDGET  LAST
  PRINT  CONCENTRATION  LAST
  PRINT  BUDGET  LAST
END period  1

