# File generated by Flopy version 3.3.3 on 07/03/2021 at 17:24:36.
BEGIN options
END options

BEGIN griddata
  iconvert
    CONSTANT  0
  ss
    CONSTANT       0.00000000
  sy
    CONSTANT       0.00000000
END griddata

BEGIN period  1
  STEADY-STATE
END period  1

