# File generated by Flopy version 3.3.3 on 07/03/2021 at 17:24:35.
BEGIN options
  DIGITS  9
END options

BEGIN continuous  FILEOUT  rch.csv
  rch  RCH  rch
END continuous  FILEOUT  rch.csv

